
Note: Compatibility modes selected: hs a

Warning: m=xx on .subckt line will override multiplier m hierarchy!


Circuit: * vreg and load current transient

option SCALE: Scale is set to 1e-06 for instance and model parameters
Warning: Model issue on line 2650 :
  .model sky130_fd_pr__diode_pw2nd_11v0 d level=3.0 tlevc=1.0 area=1.0e+12 ...
unrecognized parameter (vb) - ignored
unrecognized parameter (gap1) - ignored
unrecognized parameter (gap2) - ignored
unrecognized parameter (xw) - ignored
Warning: Model issue on line 2667 :
  .model sky130_fd_pr__diode_pd2nw_11v0 d level=3.0 tlevc=1.0 area=1.0e+12 ...
unrecognized parameter (vb) - ignored
unrecognized parameter (gap1) - ignored
unrecognized parameter (gap2) - ignored
unrecognized parameter (xw) - ignored
Doing analysis at TEMP = 25.000000 and TNOM = 27.000000

Warning: IKK too small - model effect disabled!
Warning: IKK too small - model effect disabled!
Warning: v4: no DC value, transient time 0 value used
Warning: v3: no DC value, transient time 0 value used
Warning: v2: no DC value, transient time 0 value used
Warning: v1: no DC value, transient time 0 value used
Using transient initial conditions

No. of Data Rows : 26873
id                  =  5.002401e-04

The file "vregplot.ps" may be printed on a postscript printer.

The file "currentplot.ps" may be printed on a postscript printer.
Note: No ".plot", ".print", or ".fourier" lines; no simulations run
