
*****
***** Welcome to the Xyce(TM) Parallel Electronic Simulator
*****
***** This is version Xyce DEVELOPMENT-202111250123-(Public_Release-7.4.0-56-g82a079af)-opensource
***** Date: Tue Dec 07 22:01:59 PST 2021


***** Executing netlist gmId.netlist

***** Reading and parsing netlist...
***** Setting up topology...

Netlist warning in file
 ../../../PDK/open_pdks/sky130/sky130A/libs.tech/ngspice/corners/../../../libs.ref/sky130_fd_pr/spice/sky130_fd_pr__pfet_01v8__tt.pm3.spice
 at or near line 33
 Device instance XM4:MSKY130_FD_PR__PFET_01V8: Source conductance reset to
 1.0e3 mho
Netlist warning in file
 ../../../PDK/open_pdks/sky130/sky130A/libs.tech/ngspice/corners/../../../libs.ref/sky130_fd_pr/spice/sky130_fd_pr__pfet_01v8__tt.pm3.spice
 at or near line 33
 Device instance XM4:MSKY130_FD_PR__PFET_01V8: Drain conductance reset to
 1.0e3 mho
Netlist warning in file
 ../../../PDK/open_pdks/sky130/sky130A/libs.tech/ngspice/corners/../../../libs.ref/sky130_fd_pr/spice/sky130_fd_pr__nfet_01v8__tt.pm3.spice
 at or near line 31
 Device instance XM2:MSKY130_FD_PR__NFET_01V8: Source conductance reset to
 1.0e3 mho
Netlist warning in file
 ../../../PDK/open_pdks/sky130/sky130A/libs.tech/ngspice/corners/../../../libs.ref/sky130_fd_pr/spice/sky130_fd_pr__nfet_01v8__tt.pm3.spice
 at or near line 31
 Device instance XM2:MSKY130_FD_PR__NFET_01V8: Drain conductance reset to
 1.0e3 mho
Netlist warning in file
 ../../../PDK/open_pdks/sky130/sky130A/libs.tech/ngspice/corners/../../../libs.ref/sky130_fd_pr/spice/sky130_fd_pr__nfet_01v8_lvt__tt.pm3.spice
 at or near line 33
 Device instance XM1:MSKY130_FD_PR__NFET_01V8_LVT: Source conductance reset to
 1.0e3 mho
Netlist warning in file
 ../../../PDK/open_pdks/sky130/sky130A/libs.tech/ngspice/corners/../../../libs.ref/sky130_fd_pr/spice/sky130_fd_pr__nfet_01v8_lvt__tt.pm3.spice
 at or near line 33
 Device instance XM1:MSKY130_FD_PR__NFET_01V8_LVT: Drain conductance reset to
 1.0e3 mho
Netlist warning in file
 ../../../PDK/open_pdks/sky130/sky130A/libs.tech/ngspice/corners/../../../libs.ref/sky130_fd_pr/spice/sky130_fd_pr__pfet_01v8_hvt__tt.pm3.spice
 at or near line 33
 Device instance XM5:MSKY130_FD_PR__PFET_01V8_HVT: Source conductance reset to
 1.0e3 mho
Netlist warning in file
 ../../../PDK/open_pdks/sky130/sky130A/libs.tech/ngspice/corners/../../../libs.ref/sky130_fd_pr/spice/sky130_fd_pr__pfet_01v8_hvt__tt.pm3.spice
 at or near line 33
 Device instance XM5:MSKY130_FD_PR__PFET_01V8_HVT: Drain conductance reset to
 1.0e3 mho
***** Device Count Summary ...
       M level 14 (BSIM4)                     4
       V level 1 (Independent Voltage Source) 2
       ----------------------------------------
       Total Devices                          6
***** Setting up matrix structure...
***** Number of Unknowns = 16
***** Initializing...

Netlist warning in file
 ../../../PDK/open_pdks/sky130/sky130A/libs.tech/ngspice/corners/../../../libs.ref/sky130_fd_pr/spice/sky130_fd_pr__nfet_01v8_lvt__tt.pm3.spice
 at or near line 33
 Device instance XM1:MSKY130_FD_PR__NFET_01V8_LVT: Source conductance reset to
 1.0e3 mho
Netlist warning in file
 ../../../PDK/open_pdks/sky130/sky130A/libs.tech/ngspice/corners/../../../libs.ref/sky130_fd_pr/spice/sky130_fd_pr__nfet_01v8_lvt__tt.pm3.spice
 at or near line 33
 Device instance XM1:MSKY130_FD_PR__NFET_01V8_LVT: Drain conductance reset to
 1.0e3 mho
Netlist warning in file
 ../../../PDK/open_pdks/sky130/sky130A/libs.tech/ngspice/corners/../../../libs.ref/sky130_fd_pr/spice/sky130_fd_pr__nfet_01v8__tt.pm3.spice
 at or near line 31
 Device instance XM2:MSKY130_FD_PR__NFET_01V8: Source conductance reset to
 1.0e3 mho
Netlist warning in file
 ../../../PDK/open_pdks/sky130/sky130A/libs.tech/ngspice/corners/../../../libs.ref/sky130_fd_pr/spice/sky130_fd_pr__nfet_01v8__tt.pm3.spice
 at or near line 31
 Device instance XM2:MSKY130_FD_PR__NFET_01V8: Drain conductance reset to
 1.0e3 mho
Netlist warning in file
 ../../../PDK/open_pdks/sky130/sky130A/libs.tech/ngspice/corners/../../../libs.ref/sky130_fd_pr/spice/sky130_fd_pr__pfet_01v8__tt.pm3.spice
 at or near line 33
 Device instance XM4:MSKY130_FD_PR__PFET_01V8: Source conductance reset to
 1.0e3 mho
Netlist warning in file
 ../../../PDK/open_pdks/sky130/sky130A/libs.tech/ngspice/corners/../../../libs.ref/sky130_fd_pr/spice/sky130_fd_pr__pfet_01v8__tt.pm3.spice
 at or near line 33
 Device instance XM4:MSKY130_FD_PR__PFET_01V8: Drain conductance reset to
 1.0e3 mho
Netlist warning in file
 ../../../PDK/open_pdks/sky130/sky130A/libs.tech/ngspice/corners/../../../libs.ref/sky130_fd_pr/spice/sky130_fd_pr__pfet_01v8_hvt__tt.pm3.spice
 at or near line 33
 Device instance XM5:MSKY130_FD_PR__PFET_01V8_HVT: Source conductance reset to
 1.0e3 mho
Netlist warning in file
 ../../../PDK/open_pdks/sky130/sky130A/libs.tech/ngspice/corners/../../../libs.ref/sky130_fd_pr/spice/sky130_fd_pr__pfet_01v8_hvt__tt.pm3.spice
 at or near line 33
 Device instance XM5:MSKY130_FD_PR__PFET_01V8_HVT: Drain conductance reset to
 1.0e3 mho
------------------------------------------------------------
Operating point information:
Number of BSIM4 models: 4
          name XM1:SKY130_FD_PR__NFET_01V8_LVT__MODEL.87XM2:SKY130_FD_PR__NFET_01V8__MODEL.161XM4:SKY130_FD_PR__PFET_01V8__MODEL.107XM5:SKY130_FD_PR__PFET_01V8_HVT__MODEL.188
          type            NMOS           NMOS           PMOS           PMOS
         level              54             54             54             54
        TEMPMOD              0              0              0              0
         IGCMOD              0              0              0              0
        TNOIMOD              1              1              1              1
       RGATEMOD              0              0              0              0
       ACNQSMOD              0              0              0              0
       TRNQSMOD              0              0              0              0
         CAPMOD              2              2              2              2
    CVCHARGEMOD              0              0              0              0
         WPEMOD              0              0              0              0
             EM        4.1e+07        4.1e+07        4.1e+07        4.1e+07
          TNOIA        2.5e+07        1.5e+07        2.5e+07            1.5
           NOIC          8e+11              0              0              0
           NOIA          9e+41        2.5e+42        1.5e+42        1.2e+41
         PKU0WE              0              0              0              0
          PK2WE              0              0              0              0
       PKVTH0WE              0              0              0              0
         MOBMOD              0              0              0              0
          WK2WE              0              0              0              0
         LKU0WE              0              0              0              0
       LKVTH0WE              0              0              0              0
          RNOIB           0.26           0.26           0.34           0.37
          SCREF          1e-06          1e-06          1e-06          1e-06
          KU0WE              0              0              0              0
           K2WE              0              0              0              0
            WEB              0              0              0              0
         STETA0              0              0              0              0
          LODK2              1              1              1              1
         LKVTH0              0              0              0              0
           PKU0              0              0              0              0
        WLODVTH              1              1              1              1
        LLODKU0              0              0              0              0
          KVTH0        7.9e-09        9.8e-09       3.29e-08       2.65e-08
          KVSAT            0.2            0.2            0.5            0.4
            KU0       -2.7e-08       -2.7e-08        4.5e-08        4.5e-08
         PTVOFF              0              0              0              0
            PEU              0              0              0              0
            PXN              0              0              0              0
        PLAMBDA              0              0              0              0
        PXRCRG2              0              0              0              0
        PXRCRG1              0              0              0              0
          PNOFF              0              0              0              0
          PACDE              0              0              0              0
        LODETA0              1              1              1              1
         PVFBCV              0              0              0              0
       PEIGBINV              0              0              0              0
       PNIGBINV              0              0              0              0
       PCIGBACC              0              0              0              0
       PARAMCHK              1              1              1              1
       PBIGBACC              0              0              0              0
       PAIGBACC              0              0              0              0
          PCIGD              0              0              0              0
          PAIGS              0              0              0              0
         PAIGSD              0              0              0              0
         PEGISL              0              0              0              0
         PBGISL              0              0              0      1.058e-10
         PEGIDL              0              0              0              0
         PCGIDL              0              0              0              0
         PAGIDL              0              0    7.38059e-22    5.48936e-21
         PBETA0    6.80643e-12   -6.31633e-13    1.99274e-12   -8.90479e-13
           PCLE              0              0              0              0
            PCF              0              0              0              0
       PCKAPPAD              0              0              0              0
       PCKAPPAS              0              0              0              0
          PCGSL              0              0              0              0
            PB1              0              0    2.45371e-22              0
            PB0              0              0    -1.5978e-19              0
            PWR              0              0              0              0
         PPDITS              0              0              0              0
        PFPROUT              0              0              0              0
        PVOFFCV              0              0              0              0
       PPDIBLC2              0              0    6.69728e-15   -9.67464e-15
       PPDIBLC1   -1.89327e-29              0    2.88761e-13    3.88321e-13
          PPCLM              0   -2.09552e-14    3.50194e-13   -4.96477e-13
          PETAB              0              0   -5.00189e-14    3.82054e-14
           PPRT              0              0              0              0
           PRDW              0              0              0              0
           PRSW              0              0              0              0
        PMINVCV              0              0              0              0
            PUP              0              0              0              0
            PUD              0              0              0              0
           PUB1              0              0              0   -3.70061e-31
         PBIGSD              0              0              0              0
            PUB   -2.07635e-32    5.52626e-31   -5.64957e-32   -9.74249e-31
          PVTH0    1.16389e-15    3.65287e-14    1.24437e-14   -6.69896e-14
          PDSUB              0   -3.54091e-14              0   -9.30263e-14
         PDVT1W              0              0              0              0
          PDVT1              0              0              0              0
          PDVT0              0              0              0              0
          PLPEB              0              0              0              0
          PLPE0              0              0              0              0
           PK3B              0              0              0              0
          PKT1L              0              0              0              0
            PLP              0              0              0              0
            PK1              0              0   -4.04024e-13    3.57562e-13
           PVBM              0              0              0              0
            PK3              0              0              0              0
           PVBX              0              0              0              0
        PGAMMA2              0              0              0              0
        PGAMMA1              0              0              0              0
          PPHIN              0              0              0              0
           PNSD              0              0              0              0
          PNDEP              0              0              0              0
          PNSUB              0              0              0              0
           WLOD              0              0              0              0
           PAGS              0              0   -1.28763e-12    2.19397e-20
           TKU0              0              0              0              0
            PAT   -9.62492e-09    1.17652e-08    1.16608e-08   -2.54522e-07
          PVSAT    2.35916e-10    8.25608e-09    6.42374e-08   -3.49615e-07
            PXJ              0              0              0              0
           PCIT              0              0              0              0
         PCDSCD              0     2.3928e-25              0              0
         PCDSCB              0              0              0              0
     WTVFBSDOFF              0              0              0              0
            WEU              0              0              0              0
        WXRCRG1              0              0              0              0
          PKETA   -6.30862e-14   -1.42364e-14    7.68952e-14   -9.55892e-14
        WVOFFCV              0              0              0              0
          WNOFF              0              0              0              0
          WMOIN              0              0              0              0
           WVFB              0              0              0              0
         WVFBCV              0              0              0              0
       WPOXEDGE              0              0              0              0
         WPIGCD              0              0              0              0
          WNTOX              0              0              0              0
       WNIGBACC              0              0              0              0
       WNIGBINV              0              0              0              0
           PUTE              0   -8.56499e-15   -3.33981e-13   -1.42122e-13
       WCIGBINV              0              0              0              0
       WAIGBINV              0              0              0              0
           PKT1              0   -1.25378e-14    4.07304e-14    3.79321e-15
       WCIGBACC              0              0              0              0
       PNIGBACC              0              0              0              0
       WBIGBACC              0              0              0              0
       WAIGBACC              0              0              0              0
          WCIGD              0              0              0              0
          WAIGD              0              0              0              0
          WCIGS              0              0              0              0
          WBIGS              0              0              0              0
         WCIGSD              0              0              0              0
         WBIGSD              0              0              0              0
          WCIGC              0              0              0              0
         WAGISL              0              0   -3.54857e-15   -2.15967e-14
         WEGIDL              0              0              0              0
         WCGIDL              0              0              0              0
         WBGIDL              0              0              0   -0.000555832
         WAGIDL              0              0   -3.54857e-15   -2.15967e-14
        WALPHA1              0              0              0              0
           WCLE              0              0              0              0
            WCF              0              0              0              0
       WCKAPPAD              0              0              0              0
            WXT              0              0              0              0
            PU0    4.22442e-16    7.92307e-15     4.7869e-16     2.6548e-15
           KETA      -0.547811      -0.012617         1.2574       -1.11017
         LDVT2W              0              0              0              0
        EIGBINV            1.1            1.1            1.1            1.1
        NIGBINV              3              0              3              3
         WBGISL              0              0              0   -0.000555832
         WBETA0    -4.3645e-05    5.00755e-06   -9.58106e-06    5.31276e-06
        BIGBINV           0.03           0.03           0.03           0.03
        CIGBACC              0              0          0.075          0.075
          XJBVD              1              1              1              1
        AIGBACC              1              1           0.43           0.43
           CIGD          0.075          0.075          0.075          0.075
         RBPBYL              0              0              0              0
         LBGISL              0              0              0   -0.000263663
           PDWG              0              0              0              0
         WDVT1W              0              0              0              0
         LPIGCD              0              0              0              0
             EF            1.2           0.84              1           0.88
          AIGSD           0.43           0.43           0.43           0.43
        WFPROUT              0              0              0              0
        CIGBINV          0.006          0.006          0.006          0.006
          CGIDL            0.5            0.5            300            300
        WLAMBDA              0              0              0              0
        LPSCBE2              0              0    1.53951e-14    2.38959e-14
           NIGC              1              0              1              1
          BETA0        156.677        3.40452        29.9263       0.311625
         ALPHA0     0.00408467   -3.93008e-07          1e-10          1e-10
         PNGATE              0              0              0              0
            DWJ        2.6e-08              0              0              0
          DLCIG              0              0              0              0
             XL              0              0              0              0
            CLE            0.6            0.6            0.6            0.6
            VBM             -3             -3             -3             -3
          WCGSL              0              0              0              0
           CGSL    2.31073e-11              0    9.54827e-12    7.51389e-12
          WNDEP              0              0              0              0
        NIGBACC              1              0              1              1
          PMOIN              0              0              0              0
           WMAX        5.5e-07        5.2e-07        5.5e-07        5.4e-07
             B1              0              0    3.73453e-08              0
         PAGISL              0              0    7.38059e-22    5.48936e-21
          DVT1W        5.3e+06     1.6706e+06     1.1472e+06     1.1472e+06
           WMIN        4.2e-07        4.2e-07        4.2e-07        4.2e-07
        BINUNIT              2              2              2              2
            WWC              0              0              0              0
          PAIGD              0              0              0              0
        PALPHA0    1.14503e-16   -2.54128e-20              0              0
          WDVT1              0              0              0              0
         JTSSWS              0              0              0              0
          PRDSW              0              0              0              0
             WW              0              0              0              0
            WLC              0              0              0              0
           AIGC           0.43           0.43           0.43           0.43
            WB1              0              0   -1.17974e-15              0
          PNIGC              0              0              0              0
           PDWB              0              0              0              0
             WR              1              1              1              1
           LWLC              0              0              0              0
          LPHIN              0              0              0              0
          WAIGC              0              0              0              0
            LWC              0              0              0              0
         LBETA0   -1.99742e-05    1.31755e-06   -4.48215e-06    1.23425e-06
          WVOFF    4.81765e-12    2.48509e-16   -2.69322e-08    1.56007e-07
           LINT     1.2025e-08     1.1932e-08    -1.3994e-08     -2.026e-08
          DVTP0              0              0              0              0
        LINTNOI         -3e-07         -1e-07         -2e-07         -6e-08
          TVOFF              0              0              0              0
            LK3              0              0              0              0
       IJTHSREV            0.1            0.1            0.1            0.1
         DIOMOD              1              1              1              1
          PETA0              0   -6.67774e-16   -2.11493e-13    7.00011e-13
      TVFBSDOFF              0              0              0              0
           LK3B              0              0              0              0
        WLODKU0              1              1              1              1
        LLAMBDA              0              0              0              0
          PCGDL              0              0              0              0
             XN              0              3              3              3
           PRWG              0       0.021507         0.1376           0.02
            VTL              0              0              0              0
           DVT2       -0.05637         -0.032          0.015           0.03
          PBIGS              0              0              0              0
           JTSS              0              0              0              0
          EASUB           4.05           4.05           4.05           4.05
          NGCON              1              1              1              1
            XGL              0              0              0              0
         WKU0WE              0              0              0              0
       IJTHDFWD            0.1            0.1            0.1            0.1
          DELTA           0.01           0.01           0.01           0.01
          PIGCD              1              1              1              1
            DLC    1.21071e-08    9.87908e-09         -3e-09     -1.106e-08
            XGW              0              0              0              0
          VOFFL              0    5.81977e-09              0              0
             UD              0              0              0              0
       LAIGBINV              0              0              0              0
         JTSSWD              0              0              0              0
            LA0              0              0   -1.67541e-06    1.58036e-06
            WLN              1              1              1              1
          NJTSD             20             20             20             20
           LRDW              0              0              0              0
           DMCG              0              0              0              0
         PDITSD              0              0              0              0
         ALPHA1              0           0.85          1e-10          1e-10
         VOFFCV       -0.16994       -0.17287       -0.10701        -0.1375
            TPB      0.0012287      0.0012287      0.0020386      0.0019551
            LWL              0              0              0              0
           LCIT              0              0              0              0
             LP              1              1              1              1
         LCGIDL              0              0              0              0
          XPART              0              0              0              0
             WL              0              0              0              0
         MJSWGD            0.8            0.8         0.9274        0.70393
         PBSWGD            0.1            0.2         0.7418         0.7418
           STK2              0              0              0              0
            CJS     0.00120948     0.00133975    0.000738019    0.000743263
          WCDSC              0              0              0              0
          MJSWD          0.001         0.0009        0.29781        0.26859
          PBSWD            0.1            0.2         0.7418         0.7418
         XRCRG2              1              1              1              1
            PW0              0              0              0              0
          DVT0W              0          -3.58        -4.9772         -4.254
          CDSCB    -0.00011484              0        0.00078              0
          LKT1L              0              0              0              0
          WACDE              0              0              0              0
           XTSD           0.02           0.02           0.02           0.02
            LLC              0              0              0              0
            LUA   -3.28128e-16    8.61882e-17   -2.76392e-16   -1.50315e-15
          DMCGT              0              0              0              0
         WCGISL              0              0              0              0
            DWB      -1.08e-08              0    -1.7864e-08    -1.7864e-08
          LVOFF    2.59802e-08    8.33045e-17   -2.55703e-08    3.98217e-08
        CKAPPAS            0.6            0.6            0.6            0.6
             LW              0              0              0              0
           ACDE        0.38008            0.4            0.8          0.552
         VDDEOT            1.5            1.5           -1.5           -1.5
        NJTSSWG             20             20             20             20
             U0      0.0651775       0.151853     0.00855601      0.0250112
        JTSSWGS              0              0              0              0
          CJSWD    3.23031e-11    3.67354e-11    9.88889e-11    9.50786e-11
           WVTL              0              0              0              0
           AIGD           0.43           0.43           0.43           0.43
           NJTS             20             20             20             20
         WEGISL              0              0              0              0
           WKT2              0              0              0   -3.53964e-07
          LBIGS              0              0              0              0
          DVTP1              0              0              0              0
            KT1     -0.0665744      -0.401031      -0.139536      -0.816742
       WPDIBLC2              0              0   -3.22003e-08    5.33845e-08
           PCLC              0              0              0              0
          PVOFF   -7.51312e-19    -3.1346e-23    5.60157e-15   -2.14843e-14
           WWLC              0              0              0              0
        TBGASUB       0.000702       0.000702       0.000702       0.000702
         CJSWGD    1.79529e-10    2.38233e-10    2.39155e-10    2.54074e-10
           CGSO    2.39289e-10    2.44907e-10    5.24892e-11    5.93202e-11
         WTVOFF              0              0              0              0
           LKT1   -3.15776e-08    2.01906e-08   -1.00472e-07    1.71275e-08
           RBSB             50             50             50             50
            DWC        2.6e-08              0              0              0
          PNTOX              0              0              0              0
        WPSCBE1              0              0        29.3695       -200.803
             K2     -0.0661313    -0.00513555        1.29649       -1.38519
          EGIDL            0.8            0.8            0.1            0.1
         LDELTA              0              0              0              0
         NI0SUB       1.45e+10       1.45e+10       1.45e+10       1.45e+10
          RNOIA          0.912           0.94           0.69          0.577
            PRT              0              0              0              0
           RBPB             50             50             50             50
         WNGATE              0              0              0              0
          PBSWS            0.1            0.2         0.7418         0.7418
        POXEDGE              1              1              1              1
        RBSDBXW              0              0              0              0
       PNFACTOR   -3.19849e-13     1.3636e-12    2.17352e-13    1.68137e-12
           CIGS          0.075          0.075          0.075          0.075
           CIGC          0.075          0.075          0.075          0.075
           JSWS          6e-10          6e-10       8.04e-10        8.2e-10
         PCIGSD              0              0              0              0
           XTID              2              2            5.2              2
          WLPEB              0              0              0              0
        FNOIMOD              1              1              1              1
           PHIN              0              0              0              0
           NDEP        1.7e+17        1.7e+17        1.7e+17        1.7e+17
           RDSW         103.65         65.968         547.88         531.92
          LETAB    1.92018e-08              0    1.87925e-07   -9.60772e-08
           BIGC          0.054          0.054          0.054          0.054
         TNJTSD              0              0              0              0
           LVBM              0              0              0              0
            K3B            1.6           0.54              2              2
            CLC          1e-07          1e-07          1e-07          1e-07
           LUTE    1.15887e-08    6.21509e-08    7.86827e-07    7.20859e-07
           WCLC              0              0              0              0
           LCLC              0              0              0              0
           NSUB          6e+16          6e+16          6e+16          6e+16
           CGBO          1e-14          1e-13              0              0
           VOFF      -0.288871       -0.20753      -0.249049      -0.587788
           VSAT         185195         295124         846266   -3.79443e+06
         TCJSWG              0              0          2e-12          2e-12
        CKAPPAD            0.6            0.6            0.6            0.6
             LL              0              0              0              0
           TOXP      4.148e-09      4.148e-09       4.23e-09       4.23e-09
        VERSION            4.5            4.5            4.5            4.5
         EPSROX            3.9            3.9            3.9            3.9
           WINT        2.6e-08     2.1859e-08     7.3039e-09      9.364e-09
         WKVTH0          3e-07          2e-07          2e-07        2.5e-07
           CGDL    2.31073e-11              0    9.54827e-12    7.51389e-12
             LC              0          5e-09          5e-09          5e-09
             XJ        1.5e-07        1.5e-07        1.5e-07        1.5e-07
             W0          1e-07              0              0              0
           RBPD             50             50             50             50
        PPDITSD              0              0              0              0
           LCLE              0              0              0              0
        BIGBACC              0              0          0.054          0.054
            EOT        1.5e-09        1.5e-09        1.5e-09        1.5e-09
           AIGS           0.43           0.43           0.43           0.43
          WNIGC              0              0              0              0
         TOXREF      4.148e-09      4.148e-09       4.23e-09       4.23e-09
          TCJSW          1e-05          1e-05     0.00037357              0
            UA1    2.28102e-09   -2.38473e-11   -1.35143e-10    1.20721e-09
           RBDB             50             50             50             50
         PDVTP0              0              0              0              0
         XRCRG1             12             12             12             12
         RBPSNF              0              0              0              0
      PVFBSDOFF              0              0              0              0
          BGISL        2.3e+09        2.3e+09          1e+09          1e+09
           DVT0        0.07665              0         4.4955           4.05
        XTSSWGS           0.02           0.02           0.02           0.02
            WA1              0              0              0              0
           DMDG              0              0              0              0
             XW              0              0              0              0
            NSD          1e+20          1e+20          1e+20          1e+20
        WGAMMA2              0              0              0              0
         PBGIDL              0              0              0      1.058e-10
           DVT1         0.1252           0.53          0.294            0.3
           DMCI              0              0              0              0
          NGATE          1e+23          1e+23          1e+23          1e+23
           LPE0     2.3802e-07     1.0325e-07              0              0
       LEIGBINV              0              0              0              0
         LBGIDL              0              0              0   -0.000263663
           TOXM      4.148e-09      4.148e-09       4.23e-09       4.23e-09
           BDOS              1              1              1              1
       WEIGBINV              0              0              0              0
          WAIGS              0              0              0              0
             A0              0            1.5        9.35601       -7.25639
           PUA1    1.00689e-22              0   -4.29554e-23    3.68429e-22
           RSHG            0.1            0.1            0.1            0.1
        RDSWMIN              0              0              0              0
       EPSRGATE           11.7           11.7           11.7           11.7
         LCDSCD              0   -6.35906e-19              0              0
          CJSWS    3.23031e-11    3.67354e-11    9.88889e-11    9.50786e-11
             CF          1e-14     1.4067e-12        1.2e-11        1.2e-11
      WVFBSDOFF              0              0              0              0
       IJTHSFWD            0.1            0.1            0.1            0.1
             AT        -117937         249558         416639   -2.71702e+06
            PUC   -2.17997e-23   -3.55264e-23    1.39559e-25   -7.72247e-23
           PVAG              0              0              0              0
         PKVTH0              0              0              0              0
          WVTH0   -7.46321e-09   -3.13503e-07   -5.98288e-08     3.4163e-07
            WWN              1              1              1              1
          VFBCV             -1             -1       -0.14469      -0.144689
          PPRWB              0              0              0              0
            LUD              0              0              0              0
           PKT2              0              0              0    8.13053e-14
        VOFFCVL              0              0              0              0
          WLPE0              0              0              0              0
           NOFF         3.8661         3.4037            3.9              4
           VTH0       0.706148        1.44267      -0.776926       -1.74502
        EPSRSUB           11.7           11.7           11.7           11.7
            CIT          1e-05              0          1e-05          1e-05
          WDSUB              0     5.2267e-07              0    8.19544e-07
        TBGBSUB           1108           1108           1108           1108
         WPDITS              0              0              0              0
            VBX              0              0              0              0
          BGIDL        2.3e+09        2.3e+09          1e+09          1e+09
         TPBSWG              0              0              0              0
           LMIN        1.5e-07        1.5e-07        1.5e-07        1.5e-07
       TNJTSSWG              0              0              0              0
           DSUB       0.561834      -0.765307       0.267634      -0.267288
            LWN              1              1              1              1
          DROUT         3.4946       0.503327      -0.670911         1.0466
         RDSMOD              0              0              0              0
            KT2     -0.0738864     -0.0288789          -0.12       0.880694
         BG0SUB           1.16           1.16           1.16           1.16
         IGBMOD              0              0              0              0
           LRSW              0              0              0              0
             UA    3.11104e-10   -1.79388e-09   -1.13014e-09    5.36389e-09
          SAREF       1.04e-06       1.04e-06       1.04e-06       1.04e-06
             UB    2.54595e-18    8.33651e-18    1.14064e-18    -7.0091e-18
            UB1   -4.85479e-19    7.07753e-19     3.7264e-19   -5.14896e-19
           NOIB          1e+27              0              0          2e+25
          XJBVS              1              1              1              1
       WNFACTOR    2.05097e-06   -1.12639e-05   -1.04502e-06   -8.14167e-06
          LPRWB              0              0              0              0
             UC   -3.66127e-10    -4.8451e-10    8.38613e-13   -8.08162e-10
          PPVAG              0              0              0              0
         XTSSWD           0.02           0.02           0.02           0.02
           WRDW              0              0              0              0
            UC1   -1.09772e-10    1.47186e-10    2.69989e-10   -5.02944e-11
           DTOX              0              0              0              0
        LALPHA1              0              0              0              0
          PAIGC              0              0              0              0
            VFB              0             -1             -1             -1
           TOXE      4.148e-09      4.148e-09       4.23e-09       4.23e-09
           WKU0              0              0        2.5e-07        2.5e-07
            PA2              0              0   -5.30746e-13    -1.7808e-14
          AGIDL              0              0    2.96473e-08    4.90412e-08
            PBS         0.7477          0.729         0.6587         0.6587
          LMOIN              0              0              0              0
            UD1              0              0              0              0
         GEOMOD              0              0              0              0
         PDVTP1              0              0              0              0
         LNGATE              0              0              0              0
          WBIGD              0              0              0              0
         PSCBE2          1e-08          1e-12    -7.3019e-08   -1.17128e-07
          LK2WE              0              0              0              0
       PPOXEDGE              0              0              0              0
             EU           1.67           1.67           1.67           1.67
            JSD        0.00275        0.00275     2.1483e-05       2.17e-05
         WDVT0W              0              0              0              0
          WBIGC              0              0              0              0
         PSCBE1        4.5e+08     7.9142e+08    7.45144e+08    1.30019e+09
           WRSW              0              0              0              0
           LPEB    -4.9152e-08     -7.082e-08              0              0
          TPBSW              0              0       0.001246     0.00014242
         PDVT2W              0              0              0              0
            WXN              0              0              0              0
          LCIGD              0              0              0              0
        LLODVTH              0              0              0              0
         CJSWGS    1.79529e-10    2.38233e-10    2.39155e-10    2.54074e-10
             AF              1              1              1              1
        LPSCBE1              0              0        11.4094       -110.278
           WCIT              0              0              0              0
           TNOM             30             30             30             30
            WUC    1.39786e-16    2.53441e-16   -6.70994e-19    3.73883e-16
           BIGS          0.054          0.054          0.054          0.054
        WPSCBE2              0              0    1.29412e-14    5.03459e-14
          WPVAG              0              0              0              0
           PVTL              0              0              0              0
            NJS         1.2928         1.2928         1.3632         1.2556
           CGDO    2.39289e-10    2.44907e-10    5.24892e-11    5.93202e-11
            RSW              0              0              0              0
          CIGSD          0.075          0.075          0.075          0.075
          LNSUB              0              0              0              0
         LEGIDL              0              0              0              0
           ADOS              1              1              1              1
            UTE       -1.81601       -1.85197       -3.91515       -3.94684
            RSH              1              1              1              1
           PRWB              0              0       -0.32348       -0.32348
            JSS        0.00275        0.00275     2.1483e-05       2.17e-05
             KF              0              0              0              0
          RBPSL              0              0              0              0
            WWL              0              0              0              0
          PCIGS              0              0              0              0
       IJTHDREV            0.1            0.1            0.1            0.1
         PDITSL              0              0              0              0
      TNJTSSWGD              0              0              0              0
             B0              0              0   -2.12155e-06              0
         RSWMIN              0              0              0              0
           LVFB              0              0              0              0
            MJD        0.42197           0.44        0.34629        0.34629
           ETA0       0.255336     -0.0113661       -2.10768        8.40076
         RBPBYW              0              0              0              0
        XTSSWGD           0.02           0.02           0.02           0.02
           RBPS             50             50             50             50
        PDIBLCB              0      -0.103296        1.82981        -38.818
          LCIGC              0              0              0              0
            TCJ       0.000792       0.000792      0.0012407      0.0012407
            PA0              0              0    4.64162e-13   -7.24818e-13
         FPROUT              0              0              0              0
          MJSWS          0.001         0.0009        0.29781        0.26859
         PERMOD              1              1              1              1
            LK2   -5.20102e-09    -1.4586e-08   -3.10308e-07    2.02312e-07
        PDIBLC1        -3.9956       0.356972        2.71047        5.45863
            PBD         0.7477          0.729         0.6587         0.6587
          JSWGS              0              0              0              0
           MINV              0              0              0              0
           WUTE              0    1.20658e-07    1.60577e-06     7.4597e-07
         WDVT2W              0              0              0              0
           XTIS              2              2            5.2              2
          SBREF       1.04e-06       1.04e-06       1.04e-06       1.04e-06
       NJTSSWGD             20             20             20             20
         PBSWGS        0.79644        0.95578         1.4338         1.3925
           JSWD          6e-10          6e-10       8.04e-10        8.2e-10
           XTSS           0.02           0.02           0.02           0.02
           PHIG           4.05           4.05           4.05           4.05
        VTSSWGS             10             10             10             10
     PTVFBSDOFF              0              0              0              0
            LUP              0              0              0              0
            NJD         1.2928         1.2928         1.3632         1.2556
          BIGSD          0.054          0.054          0.054          0.054
         GAMMA2              0              0              0              0
         MJSWGS            0.8            0.8         0.9274        0.70393
         RBPBXW              0              0              0              0
          JSWGD              0              0              0              0
        JTSSWGD              0              0              0              0
         NJTSSW             20             20             20             20
        NJTSSWD             20             20             20             20
         LCGISL              0              0              0              0
         PPIGCD              0              0              0              0
         XTSSWS           0.02           0.02           0.02           0.02
        WALPHA0   -7.34231e-10    2.01471e-13              0              0
          TNJTS              0              0              0              0
        TNJTSSW              0              0              0              0
       WKVTH0WE              0              0              0              0
       TNJTSSWD              0              0              0              0
           LMAX        1.8e-07        1.8e-07        1.8e-07        1.8e-07
           VTSS             10             10             10             10
         RBSBY0            100            100            100            100
         VTSSWS             10             10             10             10
         WDROUT              0              0    8.94593e-07   -2.42898e-08
          LAIGC              0              0              0              0
        LXRCRG1              0              0              0              0
         VTSSWD             10             10             10             10
        AIGBINV           0.35           0.35           0.35           0.35
        VTSSWGD             10             10             10             10
            AGS         0.4961           1.25       -14.0214           1.25
          DVT2W         -0.032          0.068       -0.00896       -0.00896
       LPDIBLCB              0              0   -3.80581e-07    7.63492e-06
            LEU              0              0              0              0
           LNSD              0              0              0              0
            WK1              0              0    1.94254e-06   -2.00503e-06
            WUD              0              0              0              0
             K1       0.578473       0.907073         -4.079        5.08391
          RBPSW              0              0              0              0
           WDWB              0              0              0              0
          LNOFF              0              0              0              0
          RBPD0             50             50             50             50
          RBPDW              0              0              0              0
         RBPDNF              0              0              0              0
         RBPBX0            100            100            100            100
           LUD1              0              0              0              0
         RBPBXL              0              0              0              0
          PDITS     1.4427e-15              0              0              0
       LNIGBINV              0              0              0              0
         LVFBCV              0              0              0              0
        RBPBXNF              0              0              0              0
            PA1              0              0              0              0
         RBPBY0            100            100            100            100
          EGISL            0.8            0.8            0.1            0.1
        RBPBYNF              0              0              0              0
         RBSBX0            100            100            100            100
           NTOX              1              1              1              1
            LLN              1              1              1              1
        RBSDBYW              0              0              0              0
         WCDSCB              0              0              0              0
         RBDBX0            100            100            100            100
           WDWG              0              0              0              0
         RBDBY0            100            100            100            100
          PBIGD              0              0              0              0
           JTSD              0              0              0              0
            LXJ              0              0              0              0
     LTVFBSDOFF              0              0              0              0
        RBSDBXL              0              0              0              0
       WPDIBLCB              0              0   -7.41457e-07     1.6203e-05
            LB1              0              0   -6.26417e-15              0
          LBIGC              0              0              0              0
       RBSDBXNF              0              0              0              0
        RBSDBYL              0              0              0              0
          LCDSC              0              0              0              0
          TNOIB        9.9e+06        9.9e+06              0            3.5
         LCDSCB              0              0              0              0
       LNFACTOR    1.37522e-06   -2.78472e-06    1.38271e-07   -3.00484e-06
             UP              0              0              0              0
          LPRWG              0              0              0              0
            RDW              0              0              0              0
         LBIGSD              0              0              0              0
          LVSAT    -0.00376957     -0.0156827      -0.151263       0.795692
         GAMMA1              0              0              0              0
            LAT      0.0292666     -0.0247021     -0.0668584        0.53921
            LXN              0              0              0              0
            LA1              0              0              0              0
          LAIGD              0              0              0              0
           WUA1   -6.45648e-16              0    2.06528e-16   -1.76948e-15
            LA2              0              0    1.15346e-06     2.9874e-07
           MOIN          23.81            6.9          18.13         14.504
          WPHIN              0              0              0              0
            WUP              0              0              0              0
          LNDEP              0              0              0              0
        LGAMMA1              0              0              0              0
        LGAMMA2              0              0              0              0
          PBIGC              0              0              0              0
           LVBX              0              0              0              0
            LXT              0              0              0              0
           LKU0              0              0              0              0
        PDIBLC2      0.0149586     0.00840611      0.0620256      -0.107364
            LK1    1.75861e-08              0     1.0527e-06   -7.22503e-07
           LKT2     6.8511e-09              0              0   -2.11643e-07
            PUA    8.46288e-24   -4.08166e-23    9.97472e-23    9.22887e-22
       LPDIBLC1    6.29196e-07              0   -5.28563e-07   -1.00207e-06
       PAIGBINV              0              0              0              0
         LDVTP0              0              0              0              0
          LLPE0              0              0              0              0
       RBSDBYNF              0              0              0              0
          LDVT0              0              0              0              0
        PALPHA1              0              0              0              0
          WDVT2              0              0              0              0
          RBPDL              0              0              0              0
          LDVT1              0              0              0              0
          GBMIN          1e-12          1e-12          1e-12          1e-12
          LDVT2              0              0              0              0
          WCGDL              0              0              0              0
           PUD1              0              0              0              0
         LDVT0W              0              0              0              0
          PPRWG              0              0              0              0
            BVS           11.9           11.7          12.69           12.8
         LDVT1W              0              0              0              0
         LDROUT              0              0     3.4753e-07   -8.87774e-09
       PCIGBINV              0              0              0              0
         MINVCV              0              0              0              0
          LCGDL              0              0              0              0
       LCKAPPAS              0              0              0              0
         WAIGSD              0              0              0              0
          LDSUB   -3.80111e-08    9.41025e-08   -1.35878e-09   -1.35973e-08
         PCGISL              0              0              0              0
           LAGS    9.40847e-08              0    3.17626e-06   -5.46755e-14
          LVTH0   -6.54786e-08    -1.2281e-07   -4.60387e-08    1.32632e-07
          RBPS0             50             50             50             50
           LUA1   -3.68553e-16              0    6.25364e-17   -1.47262e-16
           LUB1    1.05006e-25              0              0   -3.57772e-26
            LUC    5.81218e-17      7.918e-17   -1.58748e-19    1.65254e-16
           LUC1    1.62207e-17              0   -5.10963e-17    2.60393e-17
            LLP              0              0              0              0
            LU0   -6.71481e-09   -1.64056e-08   -1.18731e-09   -4.53107e-09
            LWR              0              0              0              0
            PK2    3.81166e-15    6.80859e-15    1.09483e-13   -1.19048e-13
          LMINV              0              0              0              0
         PDVT0W              0              0              0              0
            DWG      -1.33e-08              0     -5.722e-09     -5.722e-09
        LMINVCV              0              0              0              0
          PCIGC              0              0              0              0
          LRDSW              0              0              0              0
           LPRT              0              0              0              0
          LETA0   -2.84851e-08    1.77466e-09    4.64094e-07   -1.74448e-06
          LPCLM    3.60494e-08    3.11509e-08    -6.6454e-07    9.54245e-07
           PUC1   -7.34684e-40              0    2.75574e-23    -2.4191e-23
       LPDIBLC2   -4.07897e-10              0   -1.21972e-08    1.99246e-08
        LFPROUT              0              0              0              0
         LPDITS              0              0              0              0
        LPDITSD              0              0              0              0
          LPVAG              0              0              0              0
           LDWG              0              0              0              0
             K3           1.65              2        -15.845        -13.778
           LDWB              0              0              0              0
            LB0              0              0    4.25452e-13              0
           PCLM      0.0800298     -0.0268607        3.82107       -4.39495
          LCGSL              0              0              0              0
       LCKAPPAD              0              0              0              0
            WA0              0              0   -2.23168e-06    3.79094e-06
        PPSCBE2              0              0   -2.69162e-21    -9.5021e-21
            PXT              0              0              0              0
          LKETA    8.54312e-08    2.20632e-08   -2.48967e-07    2.53595e-07
            LCF              0              0              0              0
            WB0              0              0    7.68216e-13              0
            BVD           11.9           11.7          12.69           12.8
        LALPHA0   -5.58329e-10    5.33566e-14              0              0
          AGISL              0              0    2.96473e-08    4.90412e-08
            MJS        0.42197           0.44        0.34629        0.34629
         LAGISL              0              0   -5.20632e-15   -1.19806e-14
            CJD     0.00120948     0.00133975    0.000738019    0.000743263
          WVSAT    -0.00151277     -0.0569771      -0.308851        1.72643
         LEGISL              0              0              0              0
          PCDSC              0              0              0              0
            WAT       0.061718     -0.0932737     -0.0560648        1.30542
         LAIGSD              0              0              0              0
           WAGS              0              0     6.1909e-06   -1.14428e-13
         LCIGSD              0              0              0              0
             XT       1.55e-07       1.55e-07       1.55e-07       1.55e-07
          LAIGS              0              0              0              0
          LCIGS              0              0              0              0
          LBIGD              0              0              0              0
        NFACTOR       -6.04043        25.6229        1.79675        16.8373
       LAIGBACC              0              0              0              0
       LBIGBACC              0              0              0              0
       LCIGBACC              0              0              0              0
          PDVT2              0              0              0              0
         LAMBDA              0              0              0              0
       LBIGBINV              0              0              0              0
       LCIGBINV              0              0              0              0
        PPSCBE1              0              0   -6.10851e-06     4.4269e-05
       PPDIBLCB              0              0    1.54214e-13   -3.22173e-12
          PMINV              0              0              0              0
          LNIGC              0              0              0              0
          CDSCD     4.7984e-06       0.002052              0              0
       LNIGBACC              0              0              0              0
          WKT1L              0              0              0              0
         RDWMIN              0              0              0              0
          LNTOX              0              0              0              0
       LPOXEDGE              0              0              0              0
            WEC              0              0              0              0
           KT1L              0              0              0              0
          LACDE              0              0              0              0
        LVOFFCV              0              0              0              0
       WBIGBINV              0              0              0              0
        LXRCRG2              0              0              0              0
           WUC1    -1.2326e-32              0   -1.32495e-16    5.90907e-17
         PDELTA              0              0              0              0
          WPRWG              0              0              0              0
           VTSD             10             10             10             10
         LAGIDL              0              0   -5.20632e-15   -1.19806e-14
           LVTL              0              0              0              0
      LVFBSDOFF              0              0              0              0
        KVTH0WE              0              0              0              0
           PVFB              0              0              0              0
         LTVOFF              0              0              0              0
             A1              0              0              0              0
         WDVTP0              0              0              0              0
          LLPEB              0              0              0              0
            LUB    9.82814e-27   -9.44016e-25    2.39383e-25    1.77449e-24
         WCDSCD              0     -1.897e-18              0              0
            WXJ              0              0              0              0
       RBODYMOD              1              1              1              1
          WETA0              0    4.27688e-09    1.01685e-06   -3.17437e-06
         DLCIGD              0              0              0              0
            WA2              0              0    2.55181e-06   -4.35548e-07
          WKETA    4.04529e-07     1.7027e-08    -3.6971e-07     4.0617e-07
          WNSUB              0              0              0              0
           WNSD              0              0              0              0
        WXRCRG2              0              0              0              0
        WGAMMA1              0              0              0              0
          NTNOI              1              1              1              1
           WVBX              0              0              0              0
           WVBM              0              0              0              0
           ETAB       -0.15453      -0.043998       -1.00243       0.432006
           WKT1              0     9.9399e-08    -1.9583e-07    6.22319e-08
           BIGD          0.054          0.054          0.054          0.054
           WK3B              0              0              0              0
            WW0              0              0              0              0
        MTRLMOD              0              0              0              0
             A2        0.38689       0.423855       -4.87719       0.384454
         WDVTP1              0              0              0              0
          WDVT0              0              0              0              0
            LW0              0              0              0              0
           CDSC     3.8556e-37              0        0.00013              0
            WK2   -2.44416e-08   -6.04923e-08   -5.26392e-07    6.73624e-07
            WUA   -5.42666e-17     2.9033e-16   -4.79582e-16   -4.66542e-15
            WK3              0              0              0              0
            WUB    1.33142e-25   -3.67239e-24     2.7163e-25    4.94567e-24
           WUB1              0              0              0    1.97174e-24
           WUD1              0              0              0              0
            WLP              0              0              0              0
       VFBSDOFF              0              0              0              0
          WMINV              0              0              0              0
         PDROUT              0              0   -1.86065e-13     4.6277e-15
        WMINVCV              0              0              0              0
         WDELTA              0              0              0              0
          WRDSW              0              0              0              0
          WPRWB              0              0              0              0
           WPRT              0              0              0              0
         LDVTP1              0              0              0              0
          WETAB              0              0     2.4049e-07   -1.71777e-07
            WU0   -2.70883e-09   -5.91877e-08   -2.30153e-09   -1.29817e-08
          WPCLM              0    1.37409e-07   -1.68372e-06    2.61028e-06
       PBIGBINV              0              0              0              0
       WPDIBLC1    4.23516e-22              0   -1.38836e-06   -2.05256e-06
          CGISL            0.5            0.5            300            300
        WPDITSD              0              0              0              0
            WWR              0              0              0              0
       WCKAPPAS              0              0              0              0

Number of BSIM4 instances: 4
          name XM1:MSKY130_FD_PR__NFET_01V8_LVTXM2:MSKY130_FD_PR__NFET_01V8XM4:MSKY130_FD_PR__PFET_01V8XM5:MSKY130_FD_PR__PFET_01V8_HVT
         model XM1:SKY130_FD_PR__NFET_01V8_LVT__MODEL.87XM2:SKY130_FD_PR__NFET_01V8__MODEL.161XM4:SKY130_FD_PR__PFET_01V8__MODEL.107XM5:SKY130_FD_PR__PFET_01V8_HVT__MODEL.188
         GEOMOD              0              0              0              0
       RGATEMOD              0              0              0              0
       RBODYMOD              1              1              1              1
       TRNQSMOD              0              0              0              0
            SCC              0              0              0              0
             SD              0              0              0              0
             SA              0              0              0              0
            IC3              0              0              0              0
             AS              0              0              0              0
              W        4.2e-07        4.2e-07        4.2e-07        4.2e-07
             SB              0              0              0              0
            SCA              0              0              0              0
          NGCON              1              1              1              1
        RGEOMOD              0              0              0              0
             NF              1              1              1              1
           TEMP             25             25             25             25
             AD              0              0              0              0
         DELVTO              0              0              0              0
            MIN              0              0              0              0
              L        1.5e-07        1.5e-07        1.5e-07        1.5e-07
             PD              0              0              0              0
            SCB              0              0              0              0
           RBSB             50             50             50             50
            XGW              0              0              0              0
             PS              0              0              0              0
            NRD              0              0              0              0
            NRS              0              0              0              0
            OFF              0              0              0              0
           RBDB             50             50             50             50
           RBPB             50             50             50             50
       ACNQSMOD              0              0              0              0
           RBPD             50             50             50             50
              M              1              1              1              1
             SC              0              0              0              0
           RBPS             50             50             50             50
            IC1              0              0              0              0
            IC2              0              0              0              0


Number of Independent Voltage Source models: 1
          name V level 1 (Independent Voltage Source)
          type                
         level               1

Number of Independent Voltage Source instances: 2
          name             VDD           VSIG
         model V level 1 (Independent Voltage Source)V level 1 (Independent Voltage Source)
   DCSOURCETYPE              6              6
   ACSOURCETYPE              7              7
TRANSIENTSOURCETYPE              6              6
          PHASE              0              0
             TF              0              0
           DATA                              
             FS              0              0
             VA              0              0
        ACPHASE              0              0
          THETA              0              0
            MDI              0              0
            NUM              0              0
             V2              0              0
           FREQ              0              0
            VHI              0              0
             Z0             50             50
             V1              0              0
             TR              0              0
           TAU1              0              0
             PW              0              0
             V0              0              0
           TAU2              0              0
             TD              0              0
            PER              0              0
           DCV0            1.8              0
             RB              1              1
              V              0              0
            TD2              0              0
           PORT              0              0
          ACMAG              0              0
             FC              0              0
              R              0              0
              T              0              0
            TD1              0              0
            VLO              0              0
        TSAMPLE              0              0

------------------------------------------------------------

***** Solution Summary *****
	Number Successful Steps Taken:		19
	Number Failed Steps Attempted:		0
	Number Jacobians Evaluated:		73
	Number Linear Solves:			73
	Number Failed Linear Solves:		0
	Number Residual Evaluations:		92
	Number Nonlinear Convergence Failures:	0
	Total Residual Load Time:		0.00047493 seconds
	Total Jacobian Load Time:		0.000103235 seconds
	Total Linear Solution Time:		0.000376225 seconds


***** Total Simulation Solvers Run Time: 0.006423 seconds
***** Total Elapsed Run Time:            0.765045 seconds
*****
***** End of Xyce(TM) Simulation
*****

Timing summary of 1 processor
                 Stats                   Count       CPU Time              Wall Time
---------------------------------------- ----- --------------------- ---------------------
Xyce                                         1        0.744 (100.0%)        0.765 (100.0%)
  Analysis                                   1        0.002 ( 0.31%)        0.006 ( 0.84%)
    DC Sweep                                 1        0.002 ( 0.31%)        0.006 ( 0.84%)
      Solve                                 19        0.001 ( 0.20%)        0.002 ( 0.23%)
        Residual                            92        0.000 ( 0.05%)        0.001 ( 0.07%)
        Jacobian                            73        0.000 ( 0.02%)        0.000 ( 0.02%)
        Linear Solve                        73        0.000 ( 0.04%)        0.000 ( 0.05%)
      Successful Step                       19        0.000 ( 0.04%)        0.004 ( 0.52%)
  Netlist Import                             1        0.725 (97.39%)        0.741 (96.80%)
    Parse Context                            1        0.560 (75.28%)        0.576 (75.27%)
    Distribute Devices                       1        0.158 (21.29%)        0.159 (20.73%)
    Verify Devices                           1        0.000 (<0.01%)        0.000 (<0.01%)
    Instantiate                              1        0.000 ( 0.04%)        0.000 ( 0.04%)
  Late Initialization                        1        0.003 ( 0.41%)        0.003 ( 0.40%)
    Global Indices                           1        0.000 (<0.01%)        0.000 (<0.01%)
  Setup Matrix Structure                     1        0.000 ( 0.03%)        0.000 ( 0.03%)

