
*****
***** Welcome to the Xyce(TM) Parallel Electronic Simulator
*****
***** This is version Xyce DEVELOPMENT-202111250123-(Public_Release-7.4.0-56-g82a079af)-opensource
***** Date: Thu Jan 06 22:09:33 PST 2022


***** Executing netlist LC_run.netlist

***** Reading and parsing netlist...
***** Setting up topology...

Netlist warning in file
 /home/chandru/PDK/open_pdks/sky130/sky130A/libs.tech/ngspice/corners/../../../libs.ref/sky130_fd_pr/spice/sky130_fd_pr__nfet_01v8__tt.pm3.spice
 at or near line 31
 Device instance XLCCORE:XM2:MSKY130_FD_PR__NFET_01V8: Source conductance
 reset to 1.0e3 mho
Netlist warning in file
 /home/chandru/PDK/open_pdks/sky130/sky130A/libs.tech/ngspice/corners/../../../libs.ref/sky130_fd_pr/spice/sky130_fd_pr__nfet_01v8__tt.pm3.spice
 at or near line 31
 Device instance XLCCORE:XM2:MSKY130_FD_PR__NFET_01V8: Drain conductance reset
 to 1.0e3 mho
Netlist warning in file
 /home/chandru/PDK/open_pdks/sky130/sky130A/libs.tech/ngspice/corners/../../../libs.ref/sky130_fd_pr/spice/sky130_fd_pr__nfet_01v8__tt.pm3.spice
 at or near line 31
 Device instance XLCCORE:XM1:MSKY130_FD_PR__NFET_01V8: Source conductance
 reset to 1.0e3 mho
Netlist warning in file
 /home/chandru/PDK/open_pdks/sky130/sky130A/libs.tech/ngspice/corners/../../../libs.ref/sky130_fd_pr/spice/sky130_fd_pr__nfet_01v8__tt.pm3.spice
 at or near line 31
 Device instance XLCCORE:XM1:MSKY130_FD_PR__NFET_01V8: Drain conductance reset
 to 1.0e3 mho
Netlist warning in file
 /home/chandru/PDK/open_pdks/sky130/sky130A/libs.tech/ngspice/corners/../../../libs.ref/sky130_fd_pr/spice/sky130_fd_pr__nfet_01v8__tt.pm3.spice
 at or near line 31
 Device instance XLCCORE:XM4:MSKY130_FD_PR__NFET_01V8: Source conductance
 reset to 1.0e3 mho
Netlist warning in file
 /home/chandru/PDK/open_pdks/sky130/sky130A/libs.tech/ngspice/corners/../../../libs.ref/sky130_fd_pr/spice/sky130_fd_pr__nfet_01v8__tt.pm3.spice
 at or near line 31
 Device instance XLCCORE:XM4:MSKY130_FD_PR__NFET_01V8: Drain conductance reset
 to 1.0e3 mho
Netlist warning in file
 /home/chandru/PDK/open_pdks/sky130/sky130A/libs.tech/ngspice/corners/../../../libs.ref/sky130_fd_pr/spice/sky130_fd_pr__nfet_01v8__tt.pm3.spice
 at or near line 31
 Device instance XLCCORE:XM3:MSKY130_FD_PR__NFET_01V8: Source conductance
 reset to 1.0e3 mho
Netlist warning in file
 /home/chandru/PDK/open_pdks/sky130/sky130A/libs.tech/ngspice/corners/../../../libs.ref/sky130_fd_pr/spice/sky130_fd_pr__nfet_01v8__tt.pm3.spice
 at or near line 31
 Device instance XLCCORE:XM3:MSKY130_FD_PR__NFET_01V8: Drain conductance reset
 to 1.0e3 mho
Netlist warning in file
 /home/chandru/PDK/open_pdks/sky130/sky130A/libs.tech/ngspice/corners/../../../libs.ref/sky130_fd_pr/spice/sky130_fd_pr__nfet_01v8__tt.pm3.spice
 at or near line 31
 Device instance XLCCORE:XM5:MSKY130_FD_PR__NFET_01V8: Source conductance
 reset to 1.0e3 mho
Netlist warning in file
 /home/chandru/PDK/open_pdks/sky130/sky130A/libs.tech/ngspice/corners/../../../libs.ref/sky130_fd_pr/spice/sky130_fd_pr__nfet_01v8__tt.pm3.spice
 at or near line 31
 Device instance XLCCORE:XM5:MSKY130_FD_PR__NFET_01V8: Drain conductance reset
 to 1.0e3 mho
Netlist warning: Voltage Node (SW0) connected to only 1 device Terminal
Netlist warning: Voltage Node (SW1) connected to only 1 device Terminal
Netlist warning: Voltage Node (XLCCORE:XL1:NET31) does not have a DC path to
 ground
Netlist warning: Voltage Node (XLCCORE:XL1:NET37) does not have a DC path to
 ground
Netlist warning: Voltage Node (OPEN) does not have a DC path to ground
***** Device Count Summary ...
       C level 1 (Capacitor)                   6
       I level 1 (Independent Current Source)  1
       L level 1 (Inductor)                    2
       M level 14 (BSIM4)                      5
       R level 1 (Resistor)                    9
       V level 1 (Independent Voltage Source)  4
       -----------------------------------------
       Total Devices                          27
***** Setting up matrix structure...
***** Number of Unknowns = 40
***** Initializing...

Netlist warning in file
 /home/chandru/PDK/open_pdks/sky130/sky130A/libs.tech/ngspice/corners/../../../libs.ref/sky130_fd_pr/spice/sky130_fd_pr__nfet_01v8__tt.pm3.spice
 at or near line 31
 Device instance XLCCORE:XM1:MSKY130_FD_PR__NFET_01V8: Source conductance
 reset to 1.0e3 mho
Netlist warning in file
 /home/chandru/PDK/open_pdks/sky130/sky130A/libs.tech/ngspice/corners/../../../libs.ref/sky130_fd_pr/spice/sky130_fd_pr__nfet_01v8__tt.pm3.spice
 at or near line 31
 Device instance XLCCORE:XM1:MSKY130_FD_PR__NFET_01V8: Drain conductance reset
 to 1.0e3 mho
Netlist warning in file
 /home/chandru/PDK/open_pdks/sky130/sky130A/libs.tech/ngspice/corners/../../../libs.ref/sky130_fd_pr/spice/sky130_fd_pr__nfet_01v8__tt.pm3.spice
 at or near line 31
 Device instance XLCCORE:XM2:MSKY130_FD_PR__NFET_01V8: Source conductance
 reset to 1.0e3 mho
Netlist warning in file
 /home/chandru/PDK/open_pdks/sky130/sky130A/libs.tech/ngspice/corners/../../../libs.ref/sky130_fd_pr/spice/sky130_fd_pr__nfet_01v8__tt.pm3.spice
 at or near line 31
 Device instance XLCCORE:XM2:MSKY130_FD_PR__NFET_01V8: Drain conductance reset
 to 1.0e3 mho
Netlist warning in file
 /home/chandru/PDK/open_pdks/sky130/sky130A/libs.tech/ngspice/corners/../../../libs.ref/sky130_fd_pr/spice/sky130_fd_pr__nfet_01v8__tt.pm3.spice
 at or near line 31
 Device instance XLCCORE:XM3:MSKY130_FD_PR__NFET_01V8: Source conductance
 reset to 1.0e3 mho
Netlist warning in file
 /home/chandru/PDK/open_pdks/sky130/sky130A/libs.tech/ngspice/corners/../../../libs.ref/sky130_fd_pr/spice/sky130_fd_pr__nfet_01v8__tt.pm3.spice
 at or near line 31
 Device instance XLCCORE:XM3:MSKY130_FD_PR__NFET_01V8: Drain conductance reset
 to 1.0e3 mho
Netlist warning in file
 /home/chandru/PDK/open_pdks/sky130/sky130A/libs.tech/ngspice/corners/../../../libs.ref/sky130_fd_pr/spice/sky130_fd_pr__nfet_01v8__tt.pm3.spice
 at or near line 31
 Device instance XLCCORE:XM4:MSKY130_FD_PR__NFET_01V8: Source conductance
 reset to 1.0e3 mho
Netlist warning in file
 /home/chandru/PDK/open_pdks/sky130/sky130A/libs.tech/ngspice/corners/../../../libs.ref/sky130_fd_pr/spice/sky130_fd_pr__nfet_01v8__tt.pm3.spice
 at or near line 31
 Device instance XLCCORE:XM4:MSKY130_FD_PR__NFET_01V8: Drain conductance reset
 to 1.0e3 mho
Netlist warning in file
 /home/chandru/PDK/open_pdks/sky130/sky130A/libs.tech/ngspice/corners/../../../libs.ref/sky130_fd_pr/spice/sky130_fd_pr__nfet_01v8__tt.pm3.spice
 at or near line 31
 Device instance XLCCORE:XM5:MSKY130_FD_PR__NFET_01V8: Source conductance
 reset to 1.0e3 mho
Netlist warning in file
 /home/chandru/PDK/open_pdks/sky130/sky130A/libs.tech/ngspice/corners/../../../libs.ref/sky130_fd_pr/spice/sky130_fd_pr__nfet_01v8__tt.pm3.spice
 at or near line 31
 Device instance XLCCORE:XM5:MSKY130_FD_PR__NFET_01V8: Drain conductance reset
 to 1.0e3 mho
***** Beginning Transient Calculation...

------------------------------------------------------------
Operating point information:
Number of BSIM4 models: 5
          name XLCCORE:XM1:SKY130_FD_PR__NFET_01V8__MODEL.26XLCCORE:XM2:SKY130_FD_PR__NFET_01V8__MODEL.26XLCCORE:XM3:SKY130_FD_PR__NFET_01V8__MODEL.26XLCCORE:XM4:SKY130_FD_PR__NFET_01V8__MODEL.26XLCCORE:XM5:SKY130_FD_PR__NFET_01V8__MODEL.35
          type            NMOS           NMOS           NMOS           NMOS           NMOS
         level              54             54             54             54             54
        TEMPMOD              0              0              0              0              0
         IGCMOD              0              0              0              0              0
        TNOIMOD              1              1              1              1              1

       RGATEMOD              0              0              0              0              0
       ACNQSMOD              0              0              0              0              0
       TRNQSMOD              0              0              0              0              0
         CAPMOD              2              2              2              2              2
    CVCHARGEMOD              0              0              0              0              0
         WPEMOD              0              0              0              0              0
             EM        4.1e+07        4.1e+07        4.1e+07        4.1e+07        4.1e+07
          TNOIA        1.5e+07        1.5e+07        1.5e+07        1.5e+07        1.5e+07

           NOIC              0              0              0              0              0
           NOIA        2.5e+42        2.5e+42        2.5e+42        2.5e+42        2.5e+42
         PKU0WE              0              0              0              0              0
          PK2WE              0              0              0              0              0
       PKVTH0WE              0              0              0              0              0
         MOBMOD              0              0              0              0              0
          WK2WE              0              0              0              0              0
         LKU0WE              0              0              0              0              0

       LKVTH0WE              0              0              0              0              0
          RNOIB           0.26           0.26           0.26           0.26           0.26
          SCREF          1e-06          1e-06          1e-06          1e-06          1e-06
          KU0WE              0              0              0              0              0
           K2WE              0              0              0              0              0
            WEB              0              0              0              0              0
         STETA0              0              0              0              0              0
          LODK2              1              1              1              1              1

         LKVTH0              0              0              0              0              0
           PKU0              0              0              0              0              0
        WLODVTH              1              1              1              1              1
        LLODKU0              0              0              0              0              0
          KVTH0        9.8e-09        9.8e-09        9.8e-09        9.8e-09        9.8e-09
          KVSAT            0.2            0.2            0.2            0.2            0.2
            KU0       -2.7e-08       -2.7e-08       -2.7e-08       -2.7e-08       -2.7e-08
         PTVOFF              0              0              0              0              0

            PEU              0              0              0              0              0
            PXN              0              0              0              0              0
        PLAMBDA              0              0              0              0              0
        PXRCRG2              0              0              0              0              0
        PXRCRG1              0              0              0              0              0
          PNOFF              0              0              0              0              0
          PACDE              0              0              0              0              0
        LODETA0              1              1              1              1              1

         PVFBCV              0              0              0              0              0
       PEIGBINV              0              0              0              0              0
       PNIGBINV              0              0              0              0              0
       PCIGBACC              0              0              0              0              0
       PARAMCHK              1              1              1              1              1
       PBIGBACC              0              0              0              0              0
       PAIGBACC              0              0              0              0              0
          PCIGD              0              0              0              0              0

          PAIGS              0              0              0              0              0
         PAIGSD              0              0              0              0              0
         PEGISL              0              0              0              0              0
         PBGISL              0              0              0              0              0
         PEGIDL              0              0              0              0              0
         PCGIDL              0              0              0              0              0
         PAGIDL              0              0              0              0              0
         PBETA0    1.99206e-11    1.99206e-11    1.99206e-11    1.99206e-11    1.48069e-12

           PCLE              0              0              0              0              0
            PCF              0              0              0              0              0
       PCKAPPAD              0              0              0              0              0
       PCKAPPAS              0              0              0              0              0
          PCGSL              0              0              0              0              0
            PB1              0              0              0              0              0
            PB0              0              0              0              0              0
            PWR              0              0              0              0              0

         PPDITS              0              0              0              0              0
        PFPROUT              0              0              0              0              0
        PVOFFCV              0              0              0              0              0
       PPDIBLC2    1.85732e-15    1.85732e-15    1.85732e-15    1.85732e-15              0
       PPDIBLC1    1.51651e-13    1.51651e-13    1.51651e-13    1.51651e-13              0
          PPCLM    7.40939e-13    7.40939e-13    7.40939e-13    7.40939e-13    3.63527e-13
          PETAB    6.31669e-14    6.31669e-14    6.31669e-14    6.31669e-14              0
           PPRT              0              0              0              0              0

           PRDW              0              0              0              0              0
           PRSW              0              0              0              0              0
        PMINVCV              0              0              0              0              0
            PUP              0              0              0              0              0
            PUD              0              0              0              0              0
           PUB1    6.70005e-30    6.70005e-30    6.70005e-30    6.70005e-30              0
         PBIGSD              0              0              0              0              0
            PUB   -7.08222e-30   -7.08222e-30   -7.08222e-30   -7.08222e-30    8.91099e-31

          PVTH0   -4.62993e-14   -4.62993e-14   -4.62993e-14   -4.62993e-14    1.92868e-13
          PDSUB    1.26443e-14    1.26443e-14    1.26443e-14    1.26443e-14    1.87553e-17
         PDVT1W              0              0              0              0              0
          PDVT1              0              0              0              0              0
          PDVT0              0              0              0              0              0
          PLPEB              0              0              0              0              0
          PLPE0              0              0              0              0              0
           PK3B              0              0              0              0              0

          PKT1L              0              0              0              0              0
            PLP              0              0              0              0              0
            PK1   -6.96497e-14   -6.96497e-14   -6.96497e-14   -6.96497e-14              0
           PVBM              0              0              0              0              0
            PK3              0              0              0              0              0
           PVBX              0              0              0              0              0
        PGAMMA2              0              0              0              0              0
        PGAMMA1              0              0              0              0              0

          PPHIN              0              0              0              0              0
           PNSD              0              0              0              0              0
          PNDEP              0              0              0              0              0
          PNSUB              0              0              0              0              0
           WLOD              0              0              0              0              0
           PAGS              0              0              0              0              0
           TKU0              0              0              0              0              0
            PAT   -1.42813e-07   -1.42813e-07   -1.42813e-07   -1.42813e-07    5.69494e-08

          PVSAT   -6.71774e-08   -6.71774e-08   -6.71774e-08   -6.71774e-08   -5.41712e-08
            PXJ              0              0              0              0              0
           PCIT              0              0              0              0              0
         PCDSCD    9.34951e-15    9.34951e-15    9.34951e-15    9.34951e-15              0
         PCDSCB              0              0              0              0              0
     WTVFBSDOFF              0              0              0              0              0
            WEU              0              0              0              0              0
        WXRCRG1              0              0              0              0              0

          PKETA    4.04718e-13    4.04718e-13    4.04718e-13    4.04718e-13   -2.62563e-13
        WVOFFCV              0              0              0              0              0
          WNOFF              0              0              0              0              0
          WMOIN              0              0              0              0              0
           WVFB              0              0              0              0              0
         WVFBCV              0              0              0              0              0
       WPOXEDGE              0              0              0              0              0
         WPIGCD              0              0              0              0              0

          WNTOX              0              0              0              0              0
       WNIGBACC              0              0              0              0              0
       WNIGBINV              0              0              0              0              0
           PUTE   -8.81936e-12   -8.81936e-12   -8.81936e-12   -8.81936e-12              0
       WCIGBINV              0              0              0              0              0
       WAIGBINV              0              0              0              0              0
           PKT1   -1.55755e-13   -1.55755e-13   -1.55755e-13   -1.55755e-13              0
       WCIGBACC              0              0              0              0              0

       PNIGBACC              0              0              0              0              0
       WBIGBACC              0              0              0              0              0
       WAIGBACC              0              0              0              0              0
          WCIGD              0              0              0              0              0
          WAIGD              0              0              0              0              0
          WCIGS              0              0              0              0              0
          WBIGS              0              0              0              0              0
         WCIGSD              0              0              0              0              0

         WBIGSD              0              0              0              0              0
          WCIGC              0              0              0              0              0
         WAGISL              0              0              0              0              0
         WEGIDL              0              0              0              0              0
         WCGIDL              0              0              0              0              0
         WBGIDL              0              0              0              0              0
         WAGIDL              0              0              0              0              0
        WALPHA1    6.81096e-06    6.81096e-06    6.81096e-06    6.81096e-06              0

           WCLE              0              0              0              0              0
            WCF              0              0              0              0              0
       WCKAPPAD              0              0              0              0              0
            WXT              0              0              0              0              0
            PU0     5.8741e-14     5.8741e-14     5.8741e-14     5.8741e-14    7.24587e-15
           KETA       0.551934       0.551934       0.551934       0.551934       -1.04564
         LDVT2W              0              0              0              0              0
        EIGBINV            1.1            1.1            1.1            1.1            1.1

        NIGBINV              0              0              0              0              0
         WBGISL              0              0              0              0              0
         WBETA0    -0.00015793    -0.00015793    -0.00015793    -0.00015793   -1.17388e-05
        BIGBINV           0.03           0.03           0.03           0.03           0.03
        CIGBACC              0              0              0              0              0
          XJBVD              1              1              1              1              1
        AIGBACC              1              1              1              1              1
           CIGD          0.075          0.075          0.075          0.075          0.075

         RBPBYL              0              0              0              0              0
         LBGISL              0              0              0              0              0
           PDWG              0              0              0              0              0
         WDVT1W              0              0              0              0              0
         LPIGCD              0              0              0              0              0
             EF           0.84           0.84           0.84           0.84           0.84
          AIGSD           0.43           0.43           0.43           0.43           0.43
        WFPROUT              0              0              0              0              0

        CIGBINV          0.006          0.006          0.006          0.006          0.006
          CGIDL            0.5            0.5            0.5            0.5            0.5
        WLAMBDA              0              0              0              0              0
        LPSCBE2              0              0              0              0              0
           NIGC              0              0              0              0              0
          BETA0        69.3115        69.3115        69.3115        69.3115        19.8606
         ALPHA0    2.18888e-05    2.18888e-05    2.18888e-05    2.18888e-05          3e-08
         PNGATE              0              0              0              0              0

            DWJ              0              0              0              0              0
          DLCIG              0              0              0              0              0
             XL              0              0              0              0              0
            CLE            0.6            0.6            0.6            0.6            0.6
            VBM             -3             -3             -3             -3             -3
          WCGSL              0              0              0              0              0
           CGSL              0              0              0              0              0
          WNDEP              0              0              0              0              0

        NIGBACC              0              0              0              0              0
          PMOIN              0              0              0              0              0
           WMAX          5e-06          5e-06          5e-06          5e-06          3e-06
             B1              0              0              0              0              0
         PAGISL              0              0              0              0              0
          DVT1W     1.6706e+06     1.6706e+06     1.6706e+06     1.6706e+06     1.6706e+06
           WMIN          3e-06          3e-06          3e-06          3e-06          2e-06
        BINUNIT              2              2              2              2              2

            WWC              0              0              0              0              0
          PAIGD              0              0              0              0              0
        PALPHA0    8.15101e-18    8.15101e-18    8.15101e-18    8.15101e-18              0
          WDVT1              0              0              0              0              0
         JTSSWS              0              0              0              0              0
          PRDSW              0              0              0              0              0
             WW              0              0              0              0              0
            WLC              0              0              0              0              0

           AIGC           0.43           0.43           0.43           0.43           0.43
            WB1              0              0              0              0              0
          PNIGC              0              0              0              0              0
           PDWB              0              0              0              0              0
             WR              1              1              1              1              1
           LWLC              0              0              0              0              0
          LPHIN              0              0              0              0              0
          WAIGC              0              0              0              0              0

            LWC              0              0              0              0              0
         LBETA0   -6.99443e-06   -6.99443e-06   -6.99443e-06   -6.99443e-06   -7.56887e-07
          WVOFF   -8.25232e-07   -8.25232e-07   -8.25232e-07   -8.25232e-07   -1.47417e-07
           LINT     1.1932e-08     1.1932e-08     1.1932e-08     1.1932e-08     1.1932e-08
          DVTP0              0              0              0              0              0
        LINTNOI         -1e-07         -1e-07         -1e-07         -1e-07         -1e-07
          TVOFF              0              0              0              0              0
            LK3              0              0              0              0              0

       IJTHSREV            0.1            0.1            0.1            0.1            0.1
         DIOMOD              1              1              1              1              1
          PETA0    1.77345e-13    1.77345e-13    1.77345e-13    1.77345e-13    4.63189e-21
      TVFBSDOFF              0              0              0              0              0
           LK3B              0              0              0              0              0
        WLODKU0              1              1              1              1              1
        LLAMBDA              0              0              0              0              0
          PCGDL              0              0              0              0              0

             XN              3              3              3              3              3
           PRWG       0.021507       0.021507       0.021507       0.021507       0.021507
            VTL              0              0              0              0              0
           DVT2         -0.032         -0.032         -0.032         -0.032         -0.032
          PBIGS              0              0              0              0              0
           JTSS              0              0              0              0              0
          EASUB           4.05           4.05           4.05           4.05           4.05
          NGCON              1              1              1              1              1

            XGL              0              0              0              0              0
         WKU0WE              0              0              0              0              0
       IJTHDFWD            0.1            0.1            0.1            0.1            0.1
          DELTA           0.01           0.01           0.01           0.01           0.01
          PIGCD              1              1              1              1              1
            DLC    9.87908e-09    9.87908e-09    9.87908e-09    9.87908e-09    9.87908e-09
            XGW              0              0              0              0              0
          VOFFL    5.81977e-09    5.81977e-09    5.81977e-09    5.81977e-09    5.81977e-09

             UD              0              0              0              0              0
       LAIGBINV              0              0              0              0              0
         JTSSWD              0              0              0              0              0
            LA0              0              0              0              0              0
            WLN              1              1              1              1              1
          NJTSD             20             20             20             20             20
           LRDW              0              0              0              0              0
           DMCG              0              0              0              0              0

         PDITSD              0              0              0              0              0
         ALPHA1       -1.45389       -1.45389       -1.45389       -1.45389           0.85
         VOFFCV       -0.17287       -0.17287       -0.17287       -0.17287       -0.17287
            TPB      0.0012287      0.0012287      0.0012287      0.0012287      0.0012287
            LWL              0              0              0              0              0
           LCIT              0              0              0              0              0
             LP              1              1              1              1              1
         LCGIDL              0              0              0              0              0

          XPART              0              0              0              0              0
             WL              0              0              0              0              0
         MJSWGD            0.8            0.8            0.8            0.8            0.8
         PBSWGD            0.2            0.2            0.2            0.2            0.2
           STK2              0              0              0              0              0
            CJS     0.00133975     0.00133975     0.00133975     0.00133975     0.00133975
          WCDSC              0              0              0              0              0
          MJSWD         0.0009         0.0009         0.0009         0.0009         0.0009

          PBSWD            0.2            0.2            0.2            0.2            0.2
         XRCRG2              1              1              1              1              1
            PW0              0              0              0              0              0
          DVT0W          -3.58          -3.58          -3.58          -3.58          -3.58
          CDSCB              0              0              0              0              0
          LKT1L              0              0              0              0              0
          WACDE              0              0              0              0              0
           XTSD           0.02           0.02           0.02           0.02           0.02

            LLC              0              0              0              0              0
            LUA   -2.66464e-15   -2.66464e-15   -2.66464e-15   -2.66464e-15    1.23968e-17
          DMCGT              0              0              0              0              0
         WCGISL              0              0              0              0              0
            DWB              0              0              0              0              0
          LVOFF   -2.97713e-08   -2.97713e-08   -2.97713e-08   -2.97713e-08              0
        CKAPPAS            0.6            0.6            0.6            0.6            0.6
             LW              0              0              0              0              0

           ACDE            0.4            0.4            0.4            0.4            0.4
         VDDEOT            1.5            1.5            1.5            1.5            1.5
        NJTSSWG             20             20             20             20             20
             U0       0.163527       0.163527       0.163527       0.163527      0.0516079
        JTSSWGS              0              0              0              0              0
          CJSWD    3.67354e-11    3.67354e-11    3.67354e-11    3.67354e-11    3.67354e-11
           WVTL              0              0              0              0              0
           AIGD           0.43           0.43           0.43           0.43           0.43

           NJTS             20             20             20             20             20
         WEGISL              0              0              0              0              0
           WKT2    2.59757e-07    2.59757e-07    2.59757e-07    2.59757e-07              0
          LBIGS              0              0              0              0              0
          DVTP1              0              0              0              0              0
            KT1      -0.642586      -0.642586      -0.642586      -0.642586      -0.270524
       WPDIBLC2   -1.83902e-08   -1.83902e-08   -1.83902e-08   -1.83902e-08              0
           PCLC              0              0              0              0              0

          PVOFF    8.80124e-14    8.80124e-14    8.80124e-14    8.80124e-14              0
           WWLC              0              0              0              0              0
        TBGASUB       0.000702       0.000702       0.000702       0.000702       0.000702
         CJSWGD    2.38233e-10    2.38233e-10    2.38233e-10    2.38233e-10    2.38233e-10
           CGSO    2.44907e-10    2.44907e-10    2.44907e-10    2.44907e-10    2.44907e-10
         WTVOFF              0              0              0              0              0
           LKT1    5.26863e-08    5.26863e-08    5.26863e-08    5.26863e-08              0
           RBSB             50             50             50             50             50

            DWC              0              0              0              0              0
          PNTOX              0              0              0              0              0
        WPSCBE1       -209.937       -209.937       -209.937       -209.937              0
             K2      -0.100511      -0.100511      -0.100511      -0.100511      -0.137215
          EGIDL            0.8            0.8            0.8            0.8            0.8
         LDELTA              0              0              0              0              0
         NI0SUB       1.45e+10       1.45e+10       1.45e+10       1.45e+10       1.45e+10
          RNOIA           0.94           0.94           0.94           0.94           0.94

            PRT              0              0              0              0              0
           RBPB             50             50             50             50             50
         WNGATE              0              0              0              0              0
          PBSWS            0.2            0.2            0.2            0.2            0.2
        POXEDGE              1              1              1              1              1
        RBSDBXW              0              0              0              0              0
       PNFACTOR    4.01365e-12    4.01365e-12    4.01365e-12    4.01365e-12   -3.18363e-12
           CIGS          0.075          0.075          0.075          0.075          0.075

           CIGC          0.075          0.075          0.075          0.075          0.075
           JSWS          6e-10          6e-10          6e-10          6e-10          6e-10
         PCIGSD              0              0              0              0              0
           XTID              2              2              2              2              2
          WLPEB              0              0              0              0              0
        FNOIMOD              1              1              1              1              1
           PHIN              0              0              0              0              0
           NDEP        1.7e+17        1.7e+17        1.7e+17        1.7e+17        1.7e+17

           RDSW         65.968         65.968         65.968         65.968         65.968
          LETAB    -2.1367e-08    -2.1367e-08    -2.1367e-08    -2.1367e-08              0
           BIGC          0.054          0.054          0.054          0.054          0.054
         TNJTSD              0              0              0              0              0
           LVBM              0              0              0              0              0
            K3B           0.54           0.54           0.54           0.54           0.54
            CLC          1e-07          1e-07          1e-07          1e-07          1e-07
           LUTE    2.98326e-06    2.98326e-06    2.98326e-06    2.98326e-06              0

           WCLC              0              0              0              0              0
           LCLC              0              0              0              0              0
           NSUB          6e+16          6e+16          6e+16          6e+16          6e+16
           CGBO          1e-13          1e-13          1e-13          1e-13          1e-13
           VOFF      0.0971051      0.0971051      0.0971051      0.0971051      -0.132174
           VSAT       -94052.2       -94052.2       -94052.2       -94052.2       -61658.7
         TCJSWG              0              0              0              0              0
        CKAPPAD            0.6            0.6            0.6            0.6            0.6

             LL              0              0              0              0              0
           TOXP      4.148e-09      4.148e-09      4.148e-09      4.148e-09      4.148e-09
        VERSION            4.5            4.5            4.5            4.5            4.5
         EPSROX            3.9            3.9            3.9            3.9            3.9
           WINT     2.1859e-08     2.1859e-08     2.1859e-08     2.1859e-08     2.1859e-08
         WKVTH0          2e-07          2e-07          2e-07          2e-07          2e-07
           CGDL              0              0              0              0              0
             LC          5e-09          5e-09          5e-09          5e-09          5e-09

             XJ        1.5e-07        1.5e-07        1.5e-07        1.5e-07        1.5e-07
             W0              0              0              0              0              0
           RBPD             50             50             50             50             50
        PPDITSD              0              0              0              0              0
           LCLE              0              0              0              0              0
        BIGBACC              0              0              0              0              0
            EOT        1.5e-09        1.5e-09        1.5e-09        1.5e-09        1.5e-09
           AIGS           0.43           0.43           0.43           0.43           0.43

          WNIGC              0              0              0              0              0
         TOXREF      4.148e-09      4.148e-09      4.148e-09      4.148e-09      4.148e-09
          TCJSW          1e-05          1e-05          1e-05          1e-05          1e-05
            UA1    -2.5843e-08    -2.5843e-08    -2.5843e-08    -2.5843e-08   -2.38473e-11
           RBDB             50             50             50             50             50
         PDVTP0              0              0              0              0              0
         XRCRG1             12             12             12             12             12
         RBPSNF              0              0              0              0              0

      PVFBSDOFF              0              0              0              0              0
          BGISL        2.3e+09        2.3e+09        2.3e+09        2.3e+09        2.3e+09
           DVT0              0              0              0              0              0
        XTSSWGS           0.02           0.02           0.02           0.02           0.02
            WA1              0              0              0              0              0
           DMDG              0              0              0              0              0
             XW              0              0              0              0              0
            NSD          1e+20          1e+20          1e+20          1e+20          1e+20

        WGAMMA2              0              0              0              0              0
         PBGIDL              0              0              0              0              0
           DVT1           0.53           0.53           0.53           0.53           0.53
           DMCI              0              0              0              0              0
          NGATE          1e+23          1e+23          1e+23          1e+23          1e+23
           LPE0     1.0325e-07     1.0325e-07     1.0325e-07     1.0325e-07     1.0325e-07
       LEIGBINV              0              0              0              0              0
         LBGIDL              0              0              0              0              0

           TOXM      4.148e-09      4.148e-09      4.148e-09      4.148e-09      4.148e-09
           BDOS              1              1              1              1              1
       WEIGBINV              0              0              0              0              0
          WAIGS              0              0              0              0              0
             A0            1.5            1.5            1.5            1.5            1.5
           PUA1   -1.13259e-20   -1.13259e-20   -1.13259e-20   -1.13259e-20              0
           RSHG            0.1            0.1            0.1            0.1            0.1
        RDSWMIN              0              0              0              0              0

       EPSRGATE           11.7           11.7           11.7           11.7           11.7
         LCDSCD   -3.16259e-09   -3.16259e-09   -3.16259e-09   -3.16259e-09              0
          CJSWS    3.67354e-11    3.67354e-11    3.67354e-11    3.67354e-11    3.67354e-11
             CF     1.4067e-12     1.4067e-12     1.4067e-12     1.4067e-12     1.4067e-12
      WVFBSDOFF              0              0              0              0              0
       IJTHSFWD            0.1            0.1            0.1            0.1            0.1
             AT        -248936        -248936        -248936        -248936         291512
            PUC    1.90804e-22    1.90804e-22    1.90804e-22    1.90804e-22              0

           PVAG              0              0              0              0              0
         PKVTH0              0              0              0              0              0
          WVTH0    5.13133e-07    5.13133e-07    5.13133e-07    5.13133e-07   -1.39561e-06
            WWN              1              1              1              1              1
          VFBCV             -1             -1             -1             -1             -1
          PPRWB              0              0              0              0              0
            LUD              0              0              0              0              0
           PKT2   -3.24844e-14   -3.24844e-14   -3.24844e-14   -3.24844e-14              0

        VOFFCVL              0              0              0              0              0
          WLPE0              0              0              0              0              0
           NOFF         3.4037         3.4037         3.4037         3.4037         3.4037
           VTH0       0.530486       0.530486       0.530486       0.530486        1.17614
        EPSRSUB           11.7           11.7           11.7           11.7           11.7
            CIT              0              0              0              0              0
          WDSUB     3.8336e-07     3.8336e-07     3.8336e-07     3.8336e-07   -1.48691e-10
        TBGBSUB           1108           1108           1108           1108           1108

         WPDITS              0              0              0              0              0
            VBX              0              0              0              0              0
          BGIDL        2.3e+09        2.3e+09        2.3e+09        2.3e+09        2.3e+09
         TPBSWG              0              0              0              0              0
           LMIN        1.5e-07        1.5e-07        1.5e-07        1.5e-07        1.5e-07
       TNJTSSWG              0              0              0              0              0
           DSUB       0.328974       0.328974       0.328974       0.328974       0.458701
            LWN              1              1              1              1              1

          DROUT         4.6352         4.6352         4.6352         4.6352       0.503327
         RDSMOD              0              0              0              0              0
            KT2      -0.116745      -0.116745      -0.116745      -0.116745     -0.0288789
         BG0SUB           1.16           1.16           1.16           1.16           1.16
         IGBMOD              0              0              0              0              0
           LRSW              0              0              0              0              0
             UA    1.69728e-08    1.69728e-08    1.69728e-08    1.69728e-08   -1.26282e-09
          SAREF       1.04e-06       1.04e-06       1.04e-06       1.04e-06       1.04e-06

             UB   -1.39624e-17   -1.39624e-17   -1.39624e-17   -1.39624e-17    5.31729e-18
            UB1     1.5407e-17     1.5407e-17     1.5407e-17     1.5407e-17    7.07753e-19
           NOIB              0              0              0              0              0
          XJBVS              1              1              1              1              1
       WNFACTOR   -3.24589e-05   -3.24589e-05   -3.24589e-05   -3.24589e-05    2.14093e-05
          LPRWB              0              0              0              0              0
             UC    5.26649e-10    5.26649e-10    5.26649e-10    5.26649e-10    1.53294e-11
          PPVAG              0              0              0              0              0

         XTSSWD           0.02           0.02           0.02           0.02           0.02
           WRDW              0              0              0              0              0
            UC1   -4.01145e-10   -4.01145e-10   -4.01145e-10   -4.01145e-10    1.47186e-10
           DTOX              0              0              0              0              0
        LALPHA1    2.90604e-07    2.90604e-07    2.90604e-07    2.90604e-07              0
          PAIGC              0              0              0              0              0
            VFB             -1             -1             -1             -1             -1
           TOXE      4.148e-09      4.148e-09      4.148e-09      4.148e-09      4.148e-09

           WKU0              0              0              0              0              0
            PA2              0              0              0              0              0
          AGIDL              0              0              0              0              0
            PBS          0.729          0.729          0.729          0.729          0.729
          LMOIN              0              0              0              0              0
            UD1              0              0              0              0              0
         GEOMOD              0              0              0              0              0
         PDVTP1              0              0              0              0              0

         LNGATE              0              0              0              0              0
          WBIGD              0              0              0              0              0
         PSCBE2          1e-12          1e-12          1e-12          1e-12          1e-12
          LK2WE              0              0              0              0              0
       PPOXEDGE              0              0              0              0              0
             EU           1.67           1.67           1.67           1.67           1.67
            JSD        0.00275        0.00275        0.00275        0.00275        0.00275
         WDVT0W              0              0              0              0              0

          WBIGC              0              0              0              0              0
         PSCBE1    8.62434e+08    8.62434e+08    8.62434e+08    8.62434e+08     7.9142e+08
           WRSW              0              0              0              0              0
           LPEB     -7.082e-08     -7.082e-08     -7.082e-08     -7.082e-08     -7.082e-08
          TPBSW              0              0              0              0              0
         PDVT2W              0              0              0              0              0
            WXN              0              0              0              0              0
          LCIGD              0              0              0              0              0

        LLODVTH              0              0              0              0              0
         CJSWGS    2.38233e-10    2.38233e-10    2.38233e-10    2.38233e-10    2.38233e-10
             AF              1              1              1              1              1
        LPSCBE1        -8.7035        -8.7035        -8.7035        -8.7035              0
           WCIT              0              0              0              0              0
           TNOM             30             30             30             30             30
            WUC   -1.38032e-15   -1.38032e-15   -1.38032e-15   -1.38032e-15    1.31287e-16
           BIGS          0.054          0.054          0.054          0.054          0.054

        WPSCBE2              0              0              0              0              0
          WPVAG              0              0              0              0              0
           PVTL              0              0              0              0              0
            NJS         1.2928         1.2928         1.2928         1.2928         1.2928
           CGDO    2.44907e-10    2.44907e-10    2.44907e-10    2.44907e-10    2.44907e-10
            RSW              0              0              0              0              0
          CIGSD          0.075          0.075          0.075          0.075          0.075
          LNSUB              0              0              0              0              0

         LEGIDL              0              0              0              0              0
           ADOS              1              1              1              1              1
            UTE       -21.7014       -21.7014       -21.7014       -21.7014       -1.31904
            RSH              1              1              1              1              1
           PRWB              0              0              0              0              0
            JSS        0.00275        0.00275        0.00275        0.00275        0.00275
             KF              0              0              0              0              0
          RBPSL              0              0              0              0              0

            WWL              0              0              0              0              0
          PCIGS              0              0              0              0              0
       IJTHDREV            0.1            0.1            0.1            0.1            0.1
         PDITSL              0              0              0              0              0
      TNJTSSWGD              0              0              0              0              0
             B0              0              0              0              0              0
         RSWMIN              0              0              0              0              0
           LVFB              0              0              0              0              0

            MJD           0.44           0.44           0.44           0.44           0.44
           ETA0       0.476333       0.476333       0.476333       0.476333    0.000694158
         RBPBYW              0              0              0              0              0
        XTSSWGD           0.02           0.02           0.02           0.02           0.02
           RBPS             50             50             50             50             50
        PDIBLCB      -0.843678      -0.843678      -0.843678      -0.843678      -0.103296
          LCIGC              0              0              0              0              0
            TCJ       0.000792       0.000792       0.000792       0.000792       0.000792

            PA0              0              0              0              0              0
         FPROUT              0              0              0              0              0
          MJSWS         0.0009         0.0009         0.0009         0.0009         0.0009
         PERMOD              1              1              1              1              1
            LK2   -8.09551e-10   -8.09551e-10   -8.09551e-10   -8.09551e-10    1.21044e-09
        PDIBLC1       0.731199       0.731199       0.731199       0.731199       0.356972
            PBD          0.729          0.729          0.729          0.729          0.729
          JSWGS              0              0              0              0              0

           MINV              0              0              0              0              0
           WUTE     6.0256e-05     6.0256e-05     6.0256e-05     6.0256e-05              0
         WDVT2W              0              0              0              0              0
           XTIS              2              2              2              2              2
          SBREF       1.04e-06       1.04e-06       1.04e-06       1.04e-06       1.04e-06
       NJTSSWGD             20             20             20             20             20
         PBSWGS        0.95578        0.95578        0.95578        0.95578        0.95578
           JSWD          6e-10          6e-10          6e-10          6e-10          6e-10

           XTSS           0.02           0.02           0.02           0.02           0.02
           PHIG           4.05           4.05           4.05           4.05           4.05
        VTSSWGS             10             10             10             10             10
     PTVFBSDOFF              0              0              0              0              0
            LUP              0              0              0              0              0
            NJD         1.2928         1.2928         1.2928         1.2928         1.2928
          BIGSD          0.054          0.054          0.054          0.054          0.054
         GAMMA2              0              0              0              0              0

         MJSWGS            0.8            0.8            0.8            0.8            0.8
         RBPBXW              0              0              0              0              0
          JSWGD              0              0              0              0              0
        JTSSWGD              0              0              0              0              0
         NJTSSW             20             20             20             20             20
        NJTSSWD             20             20             20             20             20
         LCGISL              0              0              0              0              0
         PPIGCD              0              0              0              0              0

         XTSSWS           0.02           0.02           0.02           0.02           0.02
        WALPHA0   -6.46208e-11   -6.46208e-11   -6.46208e-11   -6.46208e-11              0
          TNJTS              0              0              0              0              0
        TNJTSSW              0              0              0              0              0
       WKVTH0WE              0              0              0              0              0
       TNJTSSWD              0              0              0              0              0
           LMAX        1.8e-07        1.8e-07        1.8e-07        1.8e-07        1.8e-07
           VTSS             10             10             10             10             10

         RBSBY0            100            100            100            100            100
         VTSSWS             10             10             10             10             10
         WDROUT    -1.2215e-05    -1.2215e-05    -1.2215e-05    -1.2215e-05              0
          LAIGC              0              0              0              0              0
        LXRCRG1              0              0              0              0              0
         VTSSWD             10             10             10             10             10
        AIGBINV           0.35           0.35           0.35           0.35           0.35
        VTSSWGD             10             10             10             10             10

            AGS           1.25           1.25           1.25           1.25           1.25
          DVT2W          0.068          0.068          0.068          0.068          0.068
       LPDIBLCB     1.1448e-07     1.1448e-07     1.1448e-07     1.1448e-07              0
            LEU              0              0              0              0              0
           LNSD              0              0              0              0              0
            WK1    5.91747e-07    5.91747e-07    5.91747e-07    5.91747e-07              0
            WUD              0              0              0              0              0
             K1       0.706907       0.706907       0.706907       0.706907       0.907073

          RBPSW              0              0              0              0              0
           WDWB              0              0              0              0              0
          LNOFF              0              0              0              0              0
          RBPD0             50             50             50             50             50
          RBPDW              0              0              0              0              0
         RBPDNF              0              0              0              0              0
         RBPBX0            100            100            100            100            100
           LUD1              0              0              0              0              0

         RBPBXL              0              0              0              0              0
          PDITS              0              0              0              0              0
       LNIGBINV              0              0              0              0              0
         LVFBCV              0              0              0              0              0
        RBPBXNF              0              0              0              0              0
            PA1              0              0              0              0              0
         RBPBY0            100            100            100            100            100
          EGISL            0.8            0.8            0.8            0.8            0.8

        RBPBYNF              0              0              0              0              0
         RBSBX0            100            100            100            100            100
           NTOX              1              1              1              1              1
            LLN              1              1              1              1              1
        RBSDBYW              0              0              0              0              0
         WCDSCB              0              0              0              0              0
         RBDBX0            100            100            100            100            100
           WDWG              0              0              0              0              0

         RBDBY0            100            100            100            100            100
          PBIGD              0              0              0              0              0
           JTSD              0              0              0              0              0
            LXJ              0              0              0              0              0
     LTVFBSDOFF              0              0              0              0              0
        RBSDBXL              0              0              0              0              0
       WPDIBLCB    2.18878e-06    2.18878e-06    2.18878e-06    2.18878e-06              0
            LB1              0              0              0              0              0

          LBIGC              0              0              0              0              0
       RBSDBXNF              0              0              0              0              0
        RBSDBYL              0              0              0              0              0
          LCDSC              0              0              0              0              0
          TNOIB        9.9e+06        9.9e+06        9.9e+06        9.9e+06        9.9e+06
         LCDSCB              0              0              0              0              0
       LNFACTOR   -8.07185e-07   -8.07185e-07   -8.07185e-07   -8.07185e-07    1.62739e-06
             UP              0              0              0              0              0

          LPRWG              0              0              0              0              0
            RDW              0              0              0              0              0
         LBIGSD              0              0              0              0              0
          LVSAT      0.0320904      0.0320904      0.0320904      0.0320904      0.0276909
         GAMMA1              0              0              0              0              0
            LAT       0.038461       0.038461       0.038461       0.038461     -0.0291111
            LXN              0              0              0              0              0
            LA1              0              0              0              0              0

          LAIGD              0              0              0              0              0
           WUA1    7.63286e-14    7.63286e-14    7.63286e-14    7.63286e-14              0
            LA2              0              0              0              0              0
           MOIN            6.9            6.9            6.9            6.9            6.9
          WPHIN              0              0              0              0              0
            WUP              0              0              0              0              0
          LNDEP              0              0              0              0              0
        LGAMMA1              0              0              0              0              0

        LGAMMA2              0              0              0              0              0
          PBIGC              0              0              0              0              0
           LVBX              0              0              0              0              0
            LXT              0              0              0              0              0
           LKU0              0              0              0              0              0
        PDIBLC2      0.0146268      0.0146268      0.0146268      0.0146268     0.00840611
            LK1    2.35599e-08    2.35599e-08    2.35599e-08    2.35599e-08              0
           LKT2    1.09883e-08    1.09883e-08    1.09883e-08    1.09883e-08              0

            PUA    7.88982e-21    7.88982e-21    7.88982e-21    7.88982e-21   -2.42517e-23
       LPDIBLC1   -5.12978e-08   -5.12978e-08   -5.12978e-08   -5.12978e-08              0
       PAIGBINV              0              0              0              0              0
         LDVTP0              0              0              0              0              0
          LLPE0              0              0              0              0              0
       RBSDBYNF              0              0              0              0              0
          LDVT0              0              0              0              0              0
        PALPHA1   -8.59107e-13   -8.59107e-13   -8.59107e-13   -8.59107e-13              0

          WDVT2              0              0              0              0              0
          RBPDL              0              0              0              0              0
          LDVT1              0              0              0              0              0
          GBMIN          1e-12          1e-12          1e-12          1e-12          1e-12
          LDVT2              0              0              0              0              0
          WCGDL              0              0              0              0              0
           PUD1              0              0              0              0              0
         LDVT0W              0              0              0              0              0

          PPRWG              0              0              0              0              0
            BVS           11.7           11.7           11.7           11.7           11.7
         LDVT1W              0              0              0              0              0
         LDROUT   -5.29198e-07   -5.29198e-07   -5.29198e-07   -5.29198e-07              0
       PCIGBINV              0              0              0              0              0
         MINVCV              0              0              0              0              0
          LCGDL              0              0              0              0              0
       LCKAPPAS              0              0              0              0              0

         WAIGSD              0              0              0              0              0
          LDSUB   -4.28034e-09   -4.28034e-09   -4.28034e-09   -4.28034e-09   -9.58724e-12
         PCGISL              0              0              0              0              0
           LAGS              0              0              0              0              0
          LVTH0   -1.76876e-08   -1.76876e-08   -1.76876e-08   -1.76876e-08   -9.85889e-08
          RBPS0             50             50             50             50             50
           LUA1    3.83112e-15    3.83112e-15    3.83112e-15    3.83112e-15              0
           LUB1   -2.26638e-24   -2.26638e-24   -2.26638e-24   -2.26638e-24              0

            LUC   -6.45419e-17   -6.45419e-17   -6.45419e-17   -6.45419e-17              0
           LUC1    6.69595e-17    6.69595e-17    6.69595e-17    6.69595e-17              0
            LLP              0              0              0              0              0
            LU0   -2.11228e-08   -2.11228e-08   -2.11228e-08   -2.11228e-08    -3.7039e-09
            LWR              0              0              0              0              0
            PK2     3.6037e-15     3.6037e-15     3.6037e-15     3.6037e-15   -2.36796e-15
          LMINV              0              0              0              0              0
         PDVT0W              0              0              0              0              0

            DWG              0              0              0              0              0
        LMINVCV              0              0              0              0              0
          PCIGC              0              0              0              0              0
          LRDSW              0              0              0              0              0
           LPRT              0              0              0              0              0
          LETA0   -5.99891e-08   -5.99891e-08   -5.99891e-08   -5.99891e-08    -2.3677e-15
          LPCLM    -3.1349e-07    -3.1349e-07    -3.1349e-07    -3.1349e-07   -1.85826e-07
           PUC1   -1.97951e-22   -1.97951e-22   -1.97951e-22   -1.97951e-22              0

       LPDIBLC2   -6.28264e-10   -6.28264e-10   -6.28264e-10   -6.28264e-10              0
        LFPROUT              0              0              0              0              0
         LPDITS              0              0              0              0              0
        LPDITSD              0              0              0              0              0
          LPVAG              0              0              0              0              0
           LDWG              0              0              0              0              0
             K3              2              2              2              2              2
           LDWB              0              0              0              0              0

            LB0              0              0              0              0              0
           PCLM        2.60504        2.60504        2.60504        2.60504        1.64528
          LCGSL              0              0              0              0              0
       LCKAPPAD              0              0              0              0              0
            WA0              0              0              0              0              0
        PPSCBE2              0              0              0              0              0
            PXT              0              0              0              0              0
          LKETA   -9.15007e-08   -9.15007e-08   -9.15007e-08   -9.15007e-08    1.34216e-07

            LCF              0              0              0              0              0
            WB0              0              0              0              0              0
            BVD           11.7           11.7           11.7           11.7           11.7
        LALPHA0   -2.75718e-12   -2.75718e-12   -2.75718e-12   -2.75718e-12              0
          AGISL              0              0              0              0              0
            MJS           0.44           0.44           0.44           0.44           0.44
         LAGISL              0              0              0              0              0
            CJD     0.00133975     0.00133975     0.00133975     0.00133975     0.00133975

          WVSAT       0.549262       0.549262       0.549262       0.549262       0.453498
         LEGISL              0              0              0              0              0
          PCDSC              0              0              0              0              0
            WAT        1.14622        1.14622        1.14622        1.14622      -0.451492
         LAIGSD              0              0              0              0              0
           WAGS              0              0              0              0              0
         LCIGSD              0              0              0              0              0
             XT       1.55e-07       1.55e-07       1.55e-07       1.55e-07       1.55e-07

          LAIGS              0              0              0              0              0
          LCIGS              0              0              0              0              0
          LBIGD              0              0              0              0              0
        NFACTOR        9.87772        9.87772        9.87772        9.87772       -8.34387
       LAIGBACC              0              0              0              0              0
       LBIGBACC              0              0              0              0              0
       LCIGBACC              0              0              0              0              0
          PDVT2              0              0              0              0              0

         LAMBDA              0              0              0              0              0
       LBIGBINV              0              0              0              0              0
       LCIGBINV              0              0              0              0              0
        PPSCBE1      2.573e-05      2.573e-05      2.573e-05      2.573e-05              0
       PPDIBLCB   -3.38435e-13   -3.38435e-13   -3.38435e-13   -3.38435e-13              0
          PMINV              0              0              0              0              0
          LNIGC              0              0              0              0              0
          CDSCD      0.0306042      0.0306042      0.0306042      0.0306042       0.002052

       LNIGBACC              0              0              0              0              0
          WKT1L              0              0              0              0              0
         RDWMIN              0              0              0              0              0
          LNTOX              0              0              0              0              0
       LPOXEDGE              0              0              0              0              0
            WEC              0              0              0              0              0
           KT1L              0              0              0              0              0
          LACDE              0              0              0              0              0

        LVOFFCV              0              0              0              0              0
       WBIGBINV              0              0              0              0              0
        LXRCRG2              0              0              0              0              0
           WUC1    1.62102e-15    1.62102e-15    1.62102e-15    1.62102e-15              0
         PDELTA              0              0              0              0              0
          WPRWG              0              0              0              0              0
           VTSD             10             10             10             10             10
         LAGIDL              0              0              0              0              0

           LVTL              0              0              0              0              0
      LVFBSDOFF              0              0              0              0              0
        KVTH0WE              0              0              0              0              0
           PVFB              0              0              0              0              0
         LTVOFF              0              0              0              0              0
             A1              0              0              0              0              0
         WDVTP0              0              0              0              0              0
          LLPEB              0              0              0              0              0

            LUB    2.24157e-24    2.24157e-24    2.24157e-24    2.24157e-24   -4.55507e-25
         WCDSCD   -8.44083e-08   -8.44083e-08   -8.44083e-08   -8.44083e-08              0
            WXJ              0              0              0              0              0
       RBODYMOD              1              1              1              1              1
          WETA0   -1.40612e-06   -1.40612e-06   -1.40612e-06   -1.40612e-06   -3.67214e-14
         DLCIGD              0              0              0              0              0
            WA2              0              0              0              0              0
          WKETA   -2.64128e-06   -2.64128e-06   -2.64128e-06   -2.64128e-06    2.08159e-06

          WNSUB              0              0              0              0              0
           WNSD              0              0              0              0              0
        WXRCRG2              0              0              0              0              0
        WGAMMA1              0              0              0              0              0
          NTNOI              1              1              1              1              1
           WVBX              0              0              0              0              0
           WVBM              0              0              0              0              0
           ETAB       0.150033       0.150033       0.150033       0.150033     -0.0651738

           WKT1    1.15776e-06    1.15776e-06    1.15776e-06    1.15776e-06    5.78332e-08
           BIGD          0.054          0.054          0.054          0.054          0.054
           WK3B              0              0              0              0              0
            WW0              0              0              0              0              0
        MTRLMOD              0              0              0              0              0
             A2       0.423855       0.423855       0.423855       0.423855       0.423855
         WDVTP1              0              0              0              0              0
          WDVT0              0              0              0              0              0

            LW0              0              0              0              0              0
           CDSC              0              0              0              0              0
            WK2   -9.69091e-08   -9.69091e-08   -9.69091e-08   -9.69091e-08    1.15977e-08
            WUA   -5.37595e-14   -5.37595e-14   -5.37595e-14   -5.37595e-14    1.50168e-16
            WK3              0              0              0              0              0
            WUB    5.05466e-23    5.05466e-23    5.05466e-23    5.05466e-23   -6.44971e-24
           WUB1    -4.3455e-23    -4.3455e-23    -4.3455e-23    -4.3455e-23              0
           WUD1              0              0              0              0              0

            WLP              0              0              0              0              0
       VFBSDOFF              0              0              0              0              0
          WMINV              0              0              0              0              0
         PDROUT    1.56446e-12    1.56446e-12    1.56446e-12    1.56446e-12              0
        WMINVCV              0              0              0              0              0
         WDELTA              0              0              0              0              0
          WRDSW              0              0              0              0              0
          WPRWB              0              0              0              0              0

           WPRT              0              0              0              0              0
[...]
          name  XLCCORE:XL1:L1 XLCCORE:XL1:L3
         model L level 1 (Inductor)L level 1 (Inductor)
            TC2              0              0
            TC1              0              0
           TEMP             25             25
             IC              0              0
              M              1              1
              L       4.96e-09       4.96e-09


Number of Resistor models: 1
          name R level 1 (Resistor)
          type                
         level               1
           TNOM             27
           DEFW          1e-05
              R              1
            RSH              0
            TCE              0
            TC2              0
         NARROW              0

            TC1              0

Number of Resistor instances: 9
          name XLCCORE:XC1:RS1XLCCORE:XC1:RS2XLCCORE:XL1:R10XLCCORE:XL1:R13XLCCORE:XL1:R26XLCCORE:XL1:R31 XLCCORE:XL1:R4
 XLCCORE:XL1:R5 XLCCORE:XL1:R9
         model R level 1 (Resistor)R level 1 (Resistor)R level 1 (Resistor)R level 1 (Resistor)R level 1 (Resistor)R level 1 (Resistor)R level 1 (Resistor)
R level 1 (Resistor)R level 1 (Resistor)
            TC2     -7.739e-07     -1.025e-05              0              0              0              0              0
              0              0
            TC1       0.003424       0.002366              0              0              0              0              0
              0              0
              W          1e-05          1e-05          1e-05          1e-05          1e-05          1e-05          1e-05
          1e-05          1e-05
              L              0              0              0              0              0              0              0
              0              0
            TCE              0              0              0              0              0              0              0
              0              0
              M              1              1              1              1              1              1              1
              1              1
          DTEMP              0              0              0              0              0              0              0
              0              0
           TEMP             25             25             25             25             25             25             25
             25             25
              R          0.047      0.0676793           5358          9.064           0.01           0.01          2.059
           5358          2.059

------------------------------------------------------------
***** Percent complete: 1 %
***** Current system time: Thu Jan  6 22:09:34 2022
***** Estimated time to completion:  8 sec.

***** Percent complete: 2 %
***** Current system time: Thu Jan  6 22:09:34 2022
***** Estimated time to completion:  7 sec.

***** Percent complete: 3.001 %
***** Current system time: Thu Jan  6 22:09:34 2022
***** Estimated time to completion:  6 sec.

***** Percent complete: 4.001 %
***** Current system time: Thu Jan  6 22:09:34 2022
***** Estimated time to completion:  6 sec.

***** Percent complete: 5.001 %
***** Current system time: Thu Jan  6 22:09:34 2022
***** Estimated time to completion:  6 sec.

***** Percent complete: 6.001 %
***** Current system time: Thu Jan  6 22:09:34 2022
***** Estimated time to completion:  6 sec.

***** Percent complete: 7.001 %
***** Current system time: Thu Jan  6 22:09:34 2022
***** Estimated time to completion:  6 sec.

***** Percent complete: 8.002 %
***** Current system time: Thu Jan  6 22:09:34 2022
***** Estimated time to completion:  5 sec.

***** Percent complete: 9.003 %
***** Current system time: Thu Jan  6 22:09:34 2022
***** Estimated time to completion:  5 sec.

***** Percent complete: 10.004 %
***** Current system time: Thu Jan  6 22:09:34 2022
***** Estimated time to completion:  5 sec.

***** Percent complete: 11.005 %
***** Current system time: Thu Jan  6 22:09:34 2022
***** Estimated time to completion:  5 sec.

***** Percent complete: 12.006 %
***** Current system time: Thu Jan  6 22:09:35 2022
***** Estimated time to completion:  5 sec.

***** Percent complete: 13.007 %
***** Current system time: Thu Jan  6 22:09:35 2022
***** Estimated time to completion:  5 sec.

***** Percent complete: 14.008 %
***** Current system time: Thu Jan  6 22:09:35 2022
***** Estimated time to completion:  5 sec.

***** Percent complete: 15.009 %
***** Current system time: Thu Jan  6 22:09:35 2022
***** Estimated time to completion:  5 sec.

***** Percent complete: 16.009 %
***** Current system time: Thu Jan  6 22:09:35 2022
***** Estimated time to completion:  5 sec.

***** Percent complete: 17.009 %
***** Current system time: Thu Jan  6 22:09:35 2022
***** Estimated time to completion:  5 sec.

***** Percent complete: 18.009 %
***** Current system time: Thu Jan  6 22:09:35 2022
***** Estimated time to completion:  5 sec.

***** Percent complete: 19.009 %
***** Current system time: Thu Jan  6 22:09:35 2022
***** Estimated time to completion:  5 sec.

***** Percent complete: 20.009 %
***** Current system time: Thu Jan  6 22:09:35 2022
***** Estimated time to completion:  5 sec.

***** Percent complete: 21.009 %
***** Current system time: Thu Jan  6 22:09:35 2022
***** Estimated time to completion:  5 sec.

***** Percent complete: 22.009 %
***** Current system time: Thu Jan  6 22:09:35 2022
***** Estimated time to completion:  5 sec.

***** Percent complete: 23.009 %
***** Current system time: Thu Jan  6 22:09:35 2022
***** Estimated time to completion:  5 sec.

***** Percent complete: 24.009 %
***** Current system time: Thu Jan  6 22:09:36 2022
***** Estimated time to completion:  5 sec.

***** Percent complete: 25.009 %
***** Current system time: Thu Jan  6 22:09:36 2022
***** Estimated time to completion:  5 sec.

***** Percent complete: 26.009 %
***** Current system time: Thu Jan  6 22:09:36 2022
***** Estimated time to completion:  5 sec.

***** Percent complete: 27.009 %
***** Current system time: Thu Jan  6 22:09:36 2022
***** Estimated time to completion:  5 sec.

***** Percent complete: 28.009 %
***** Current system time: Thu Jan  6 22:09:36 2022
***** Estimated time to completion:  5 sec.

***** Percent complete: 29.009 %
***** Current system time: Thu Jan  6 22:09:36 2022
***** Estimated time to completion:  5 sec.

***** Percent complete: 30.009 %
***** Current system time: Thu Jan  6 22:09:36 2022
***** Estimated time to completion:  5 sec.

***** Percent complete: 31.009 %
***** Current system time: Thu Jan  6 22:09:36 2022
***** Estimated time to completion:  5 sec.

***** Percent complete: 32.009 %
***** Current system time: Thu Jan  6 22:09:36 2022
***** Estimated time to completion:  5 sec.

***** Percent complete: 33.009 %
***** Current system time: Thu Jan  6 22:09:36 2022
***** Estimated time to completion:  4 sec.

***** Percent complete: 34.009 %
***** Current system time: Thu Jan  6 22:09:36 2022
***** Estimated time to completion:  4 sec.

***** Percent complete: 35.009 %
***** Current system time: Thu Jan  6 22:09:36 2022
***** Estimated time to completion:  4 sec.

***** Percent complete: 36.009 %
***** Current system time: Thu Jan  6 22:09:36 2022
***** Estimated time to completion:  4 sec.

***** Percent complete: 37.009 %
***** Current system time: Thu Jan  6 22:09:37 2022
***** Estimated time to completion:  4 sec.

***** Percent complete: 38.009 %
***** Current system time: Thu Jan  6 22:09:37 2022
***** Estimated time to completion:  4 sec.

***** Percent complete: 39.009 %
***** Current system time: Thu Jan  6 22:09:37 2022
***** Estimated time to completion:  4 sec.

***** Percent complete: 40.009 %
***** Current system time: Thu Jan  6 22:09:37 2022
***** Estimated time to completion:  4 sec.

***** Percent complete: 41.009 %
***** Current system time: Thu Jan  6 22:09:37 2022
***** Estimated time to completion:  4 sec.

***** Percent complete: 42.009 %
***** Current system time: Thu Jan  6 22:09:37 2022
***** Estimated time to completion:  4 sec.

***** Percent complete: 43.009 %
***** Current system time: Thu Jan  6 22:09:37 2022
***** Estimated time to completion:  4 sec.

***** Percent complete: 44.009 %
***** Current system time: Thu Jan  6 22:09:37 2022
***** Estimated time to completion:  4 sec.

***** Percent complete: 45.009 %
***** Current system time: Thu Jan  6 22:09:37 2022
***** Estimated time to completion:  4 sec.

***** Percent complete: 46.009 %
***** Current system time: Thu Jan  6 22:09:37 2022
***** Estimated time to completion:  4 sec.

***** Percent complete: 47.009 %
***** Current system time: Thu Jan  6 22:09:37 2022
***** Estimated time to completion:  4 sec.

***** Percent complete: 48.009 %
***** Current system time: Thu Jan  6 22:09:37 2022
***** Estimated time to completion:  3 sec.

***** Percent complete: 49.009 %
***** Current system time: Thu Jan  6 22:09:37 2022
***** Estimated time to completion:  3 sec.

***** Percent complete: 50.009 %
***** Current system time: Thu Jan  6 22:09:38 2022
***** Estimated time to completion:  3 sec.

***** Percent complete: 51.009 %
***** Current system time: Thu Jan  6 22:09:38 2022
***** Estimated time to completion:  3 sec.

***** Percent complete: 52.009 %
***** Current system time: Thu Jan  6 22:09:38 2022
***** Estimated time to completion:  3 sec.

***** Percent complete: 53.009 %
***** Current system time: Thu Jan  6 22:09:38 2022
***** Estimated time to completion:  3 sec.

***** Percent complete: 54.009 %
***** Current system time: Thu Jan  6 22:09:38 2022
***** Estimated time to completion:  3 sec.

***** Percent complete: 55.009 %
***** Current system time: Thu Jan  6 22:09:38 2022
***** Estimated time to completion:  3 sec.

***** Percent complete: 56.009 %
***** Current system time: Thu Jan  6 22:09:38 2022
***** Estimated time to completion:  3 sec.

***** Percent complete: 57.009 %
***** Current system time: Thu Jan  6 22:09:38 2022
***** Estimated time to completion:  3 sec.

***** Percent complete: 58.009 %
***** Current system time: Thu Jan  6 22:09:38 2022
***** Estimated time to completion:  3 sec.

***** Percent complete: 59.009 %
***** Current system time: Thu Jan  6 22:09:38 2022
***** Estimated time to completion:  3 sec.

***** Percent complete: 60.009 %
***** Current system time: Thu Jan  6 22:09:38 2022
***** Estimated time to completion:  3 sec.

***** Percent complete: 61.009 %
***** Current system time: Thu Jan  6 22:09:38 2022
***** Estimated time to completion:  3 sec.

***** Percent complete: 62.009 %
***** Current system time: Thu Jan  6 22:09:39 2022
***** Estimated time to completion:  2 sec.

***** Percent complete: 63.009 %
***** Current system time: Thu Jan  6 22:09:39 2022
***** Estimated time to completion:  2 sec.

***** Percent complete: 64.009 %
***** Current system time: Thu Jan  6 22:09:39 2022
***** Estimated time to completion:  2 sec.

***** Percent complete: 65.009 %
***** Current system time: Thu Jan  6 22:09:39 2022
***** Estimated time to completion:  2 sec.

***** Percent complete: 66.009 %
***** Current system time: Thu Jan  6 22:09:39 2022
***** Estimated time to completion:  2 sec.

***** Percent complete: 67.009 %
***** Current system time: Thu Jan  6 22:09:39 2022
***** Estimated time to completion:  2 sec.

***** Percent complete: 68.009 %
***** Current system time: Thu Jan  6 22:09:39 2022
***** Estimated time to completion:  2 sec.

***** Percent complete: 69.009 %
***** Current system time: Thu Jan  6 22:09:39 2022
***** Estimated time to completion:  2 sec.

***** Percent complete: 70.009 %
***** Current system time: Thu Jan  6 22:09:39 2022
***** Estimated time to completion:  2 sec.

***** Percent complete: 71.009 %
***** Current system time: Thu Jan  6 22:09:39 2022
***** Estimated time to completion:  2 sec.

***** Percent complete: 72.009 %
***** Current system time: Thu Jan  6 22:09:39 2022
***** Estimated time to completion:  2 sec.

***** Percent complete: 73.009 %
***** Current system time: Thu Jan  6 22:09:40 2022
***** Estimated time to completion:  2 sec.

***** Percent complete: 74.009 %
***** Current system time: Thu Jan  6 22:09:40 2022
***** Estimated time to completion:  2 sec.

***** Percent complete: 75.009 %
***** Current system time: Thu Jan  6 22:09:40 2022
***** Estimated time to completion:  1 sec.

***** Percent complete: 76.009 %
***** Current system time: Thu Jan  6 22:09:40 2022
***** Estimated time to completion:  1 sec.

***** Percent complete: 77.009 %
***** Current system time: Thu Jan  6 22:09:40 2022
***** Estimated time to completion:  1 sec.

***** Percent complete: 78.009 %
***** Current system time: Thu Jan  6 22:09:40 2022
***** Estimated time to completion:  1 sec.

***** Percent complete: 79.009 %
***** Current system time: Thu Jan  6 22:09:40 2022
***** Estimated time to completion:  1 sec.

***** Percent complete: 80.009 %
***** Current system time: Thu Jan  6 22:09:40 2022
***** Estimated time to completion:  1 sec.

***** Percent complete: 81.009 %
***** Current system time: Thu Jan  6 22:09:40 2022
***** Estimated time to completion:  1 sec.

***** Percent complete: 82.009 %
***** Current system time: Thu Jan  6 22:09:40 2022
***** Estimated time to completion:  1 sec.

***** Percent complete: 83.009 %
***** Current system time: Thu Jan  6 22:09:40 2022
***** Estimated time to completion:  1 sec.

***** Percent complete: 84.009 %
***** Current system time: Thu Jan  6 22:09:41 2022
***** Estimated time to completion:  1 sec.

***** Percent complete: 85.009 %
***** Current system time: Thu Jan  6 22:09:41 2022
***** Estimated time to completion:  1 sec.

***** Percent complete: 86.009 %
***** Current system time: Thu Jan  6 22:09:41 2022
***** Estimated time to completion:  1 sec.

***** Percent complete: 87.009 %
***** Current system time: Thu Jan  6 22:09:41 2022
***** Estimated time to completion:  1 sec.

***** Percent complete: 88.009 %
***** Current system time: Thu Jan  6 22:09:41 2022
***** Estimated time to completion:  0 sec.

***** Percent complete: 89.009 %
***** Current system time: Thu Jan  6 22:09:41 2022
***** Estimated time to completion:  0 sec.

***** Percent complete: 90.009 %
***** Current system time: Thu Jan  6 22:09:41 2022
***** Estimated time to completion:  0 sec.

***** Percent complete: 91.009 %
***** Current system time: Thu Jan  6 22:09:41 2022
***** Estimated time to completion:  0 sec.

***** Percent complete: 92.009 %
***** Current system time: Thu Jan  6 22:09:41 2022
***** Estimated time to completion:  0 sec.

***** Percent complete: 93.009 %
***** Current system time: Thu Jan  6 22:09:41 2022
***** Estimated time to completion:  0 sec.

***** Percent complete: 94.009 %
***** Current system time: Thu Jan  6 22:09:41 2022
***** Estimated time to completion:  0 sec.

***** Percent complete: 95.009 %
***** Current system time: Thu Jan  6 22:09:42 2022
***** Estimated time to completion:  0 sec.

***** Percent complete: 96.009 %
***** Current system time: Thu Jan  6 22:09:42 2022
***** Estimated time to completion:  0 sec.

***** Percent complete: 97.009 %
***** Current system time: Thu Jan  6 22:09:42 2022
***** Estimated time to completion:  0 sec.

***** Percent complete: 98.009 %
***** Current system time: Thu Jan  6 22:09:42 2022
***** Estimated time to completion:  0 sec.

***** Percent complete: 99.009 %
***** Current system time: Thu Jan  6 22:09:42 2022
***** Estimated time to completion:  0 sec.

***** Problem read in and set up time: 0.958515 seconds
 ***** DCOP time: 0.00711417 seconds.  Breakdown follows:
	Number Successful Steps Taken:		0
	Number Failed Steps Attempted:		0
	Number Jacobians Evaluated:		0
	Number Linear Solves:			0
	Number Failed Linear Solves:		0
	Number Residual Evaluations:		0
	Number Nonlinear Convergence Failures:	0
	Total Residual Load Time:		0 seconds
	Total Jacobian Load Time:		0 seconds
	Total Linear Solution Time:		0 seconds

 ***** Transient Stepping time: 8.2895 seconds.  Breakdown follows:
	Number Successful Steps Taken:		100000
	Number Failed Steps Attempted:		0
	Number Jacobians Evaluated:		172277
	Number Linear Solves:			172277
	Number Failed Linear Solves:		0
	Number Residual Evaluations:		272277
	Number Nonlinear Convergence Failures:	0
	Total Residual Load Time:		2.63279 seconds
	Total Jacobian Load Time:		0.544765 seconds
	Total Linear Solution Time:		1.19367 seconds


***** Solution Summary *****
	Number Successful Steps Taken:		100000
	Number Failed Steps Attempted:		0
	Number Jacobians Evaluated:		172277
	Number Linear Solves:			172277
	Number Failed Linear Solves:		0
	Number Residual Evaluations:		272277
	Number Nonlinear Convergence Failures:	0
	Total Residual Load Time:		2.63279 seconds
	Total Jacobian Load Time:		0.544765 seconds
	Total Linear Solution Time:		1.19367 seconds


 ***** Measure Functions ***** 

ROFREQP = 2.508650e+11
Measure Start Time= 9.000000e-08	Measure End Time= 1.000000e-07

RODUTYP = 1.000000e+00
Measure Start Time= 9.000000e-08	Measure End Time= 1.000000e-07

ROFREQN = 2.526050e+11
Measure Start Time= 9.000000e-08	Measure End Time= 1.000000e-07

RODUTYN = 1.000000e+00
Measure Start Time= 9.000000e-08	Measure End Time= 1.000000e-07

TPDHL_CLK = 3.250000e-10 with targ = 9.173087e-08 and trig = 9.140587e-08

TPERIODR_P = 3.250000e-10 with targ = 9.163578e-08 and trig = 9.131078e-08

TPERIODF_P = 3.250000e-10 with targ = 9.167675e-08 and trig = 9.135175e-08

TPERIODR_N = 3.250000e-10 with targ = 9.179828e-08 and trig = 9.147328e-08

TPERIODF_N = 3.250000e-10 with targ = 9.183925e-08 and trig = 9.151425e-08

OUTPMAX = 2.792291e+00 at time = 9.017600e-08
Measure Start Time= 9.000000e-08	Measure End Time= 1.000000e-07

OUTPMIN = 8.035566e-01 at time = 9.978300e-08
Measure Start Time= 9.000000e-08	Measure End Time= 1.000000e-07

OUTP_P2P = 1.988734e+00 with max at time= 9.017600e-08 and min at time= 9.978300e-08
Measure Start Time= 9.000000e-08	Measure End Time= 1.000000e-07

OUTNMAX = 2.792288e+00 at time = 9.976400e-08
Measure Start Time= 9.000000e-08	Measure End Time= 1.000000e-07

OUTNMIN = 8.035855e-01 at time = 9.019500e-08
Measure Start Time= 9.000000e-08	Measure End Time= 1.000000e-07


***** Total Simulation Solvers Run Time: 8.29698 seconds
***** Total Elapsed Run Time:            9.25549 seconds
*****
***** End of Xyce(TM) Simulation
*****

Timing summary of 1 processor
                 Stats                   Count        CPU Time              Wall Time
---------------------------------------- ------ --------------------- ---------------------
Xyce                                          1        8.563 (100.0%)        9.256 (100.0%)
  Analysis                                    1        7.649 (89.32%)        8.297 (89.64%)
    Transient                                 1        7.649 (89.32%)        8.297 (89.64%)
      Nonlinear Solve                    100000        4.755 (55.52%)        5.151 (55.65%)
        Residual                         272277        2.516 (29.38%)        2.740 (29.60%)
        Jacobian                         172277        0.556 ( 6.49%)        0.606 ( 6.54%)
        Linear Solve                     172277        1.156 (13.50%)        1.259 (13.60%)
      Successful Step                    100000        2.486 (29.03%)        2.706 (29.23%)
  Netlist Import                              1        0.903 (10.55%)        0.944 (10.20%)
    Parse Context                             1        0.686 ( 8.01%)        0.710 ( 7.67%)
    Distribute Devices                        1        0.211 ( 2.46%)        0.227 ( 2.45%)
    Verify Devices                            1        0.000 (<0.01%)        0.000 (<0.01%)
    Instantiate                               1        0.000 (<0.01%)        0.000 (<0.01%)
  Late Initialization                         1        0.004 ( 0.04%)        0.004 ( 0.04%)
    Global Indices                            1        0.000 (<0.01%)        0.000 (<0.01%)
  Setup Matrix Structure                      1        0.000 (<0.01%)        0.000 (<0.01%)

